   Input file: C:\Users\Johannes\Documents\HydrochemicalModelling\GIT\Homework2017\Phrqc_test.pqi
  Output file: C:\Users\Johannes\Documents\HydrochemicalModelling\GIT\Homework2017\Phrqc_test.pqo
Database file: C:\Program Files (x86)\USGS\Phreeqc Interactive 3.3.12-12704\database\wateq4f.dat

------------------
Reading data base.
------------------

	SOLUTION_MASTER_SPECIES
	SOLUTION_SPECIES
	PHASES
	EXCHANGE_MASTER_SPECIES
	EXCHANGE_SPECIES
	SURFACE_MASTER_SPECIES
	SURFACE_SPECIES
	RATES
	END
------------------------------------
Reading input data for simulation 1.
------------------------------------

	DATABASE C:\Program Files (x86)\USGS\Phreeqc Interactive 3.3.12-12704\database\wateq4f.dat
	SOLUTION_SPREAD
	units mg/l
	Number	Description	Al	N(-3)	Ba	Ca	Cl	Fe	F	K	Mg	Mn	Na	Ni	N(+5)	N(+3)	P	Si	S(6)	Zn	Alkalinity
			mg/l	mg/l	mg/l	mg/l	mg/l	mg/l	mg/l	mg/l	mg/l	mg/l	mg/l	mg/l	mg/l	mg/l	mg/l	mg/l	mg/l	mg/l	mol/l as HCO3
	1	test1	0.002	13.61		610	4270	13.7		38.8	140	3.36	1300	0.0005	0.22	0.04	0.05		174	0.005	0.01083
WARNING: Alkalinity given in moles, assumed to be equivalents.
	2	test2	0.001288		8.9	2.3	0.02		1.5	7.2	0.71	13	0.011	0.02	30.14			22	0.016	3E-05
	3	test3	0.08	0.27		22	9	0.27		1.8	4.1	0.11	55		2.21	0.21	5.23		9.73		0.00345
WARNING: Alkalinity given in moles, assumed to be equivalents.
	4	test4	0.002	15.35		166	1094	3.9		52.4	130	0.4	315	0.0012	0.22	0.01	0.76		3.7	0.0011	0.01198
WARNING: Alkalinity given in moles, assumed to be equivalents.
	5	test5	0.45		112	16.4	6.4		4	12	0.26	15		0.22	0.19	0.49		14.3		0.00592
	6	test6		1	0.1	68	196	1.8	0.41	4.5	13	0.17	170	0.002	0.04	0.01	0.6		6	0.03	0.00651
WARNING: Alkalinity given in moles, assumed to be equivalents.
	7	test7		0.32		94	26	7.8		1.4	7.7	0.42	9.8		0.44	0.006569	1.71		4.5		0.005
WARNING: Alkalinity given in moles, assumed to be equivalents.
	8	test8	0.01	1.02		62	209	1.5		7.6	21	0.09	200	0.0005	2.21	0.01	0.06		17.9	0.0027	0.00739
WARNING: Alkalinity given in moles, assumed to be equivalents.
	9	test9		2.44		120	26	35		1.9	6.3	0.83	22		0.44	0.006569	0.04		3		0.0079
WARNING: Alkalinity given in moles, assumed to be equivalents.
	10	test10	0.002	0.14		77.1	52	0.67		3.7	5.26	0.15	21.7		6.86	0.00328	0.15		33.2		0.00289
WARNING: Alkalinity given in moles, assumed to be equivalents.
	SELECTED_OUTPUT
		file C:\Users\Johannes\Documents\HydrochemicalModelling\GIT\Homework2017\phreeqc_test.csv # name of output file. OBLIGATORY
		solution true
		water true	
		ph true
		percent_error error true
		alkalinity true
		charge_balance balance true
		saturation_indices	Calcite Aragonite Kaolinite Gibbsite Montmorillonite-Ca Chlorite14A Pyrophyllite SiO2(a) CO2(g)
		totals Al N(-3) Ba Ca Cl Fe F K Mg Mn Na Ni N(+5) N(+3) P Si S(6) Zn Alkalinity  N C #O2(g) CO2(g) 
		USER_PUNCH
			headings Description
			10 PUNCH DESCRIPTION
-------------------------------------------
Beginning of initial solution calculations.
-------------------------------------------

Initial solution 1.	 test1 

-----------------------------Solution composition------------------------------

	Elements           Molality       Moles

	Al                7.466e-08   7.466e-08
	Alkalinity        1.091e-02   1.091e-02
	Ca                1.533e-02   1.533e-02
	Cl                1.213e-01   1.213e-01
	Fe                2.471e-04   2.471e-04
	K                 9.995e-04   9.995e-04
	Mg                5.800e-03   5.800e-03
	Mn                6.160e-05   6.160e-05
	N(-3)             9.787e-04   9.787e-04
	N(3)              2.877e-06   2.877e-06
	N(5)              1.582e-05   1.582e-05
	Na                5.696e-02   5.696e-02
	Ni                8.578e-09   8.578e-09
	P                 1.626e-06   1.626e-06
	S(6)              1.825e-03   1.825e-03
	Zn                7.704e-08   7.704e-08

----------------------------Description of solution----------------------------

                                       pH  =   7.000    
                                       pe  =   4.000    
                        Activity of water  =   0.996
                 Ionic strength (mol/kgw)  =   1.374e-01
                       Mass of water (kg)  =   1.000e+00
                    Total carbon (mol/kg)  =   1.246e-02
                       Total CO2 (mol/kg)  =   1.246e-02
                         Temperature (°C)  =  25.00
                  Electrical balance (eq)  =  -3.411e-02
 Percent error, 100*(Cat-|An|)/(Cat+|An|)  = -14.65
                               Iterations  =  10
                                  Total H  = 1.110272e+02
                                  Total O  = 5.554939e+01

---------------------------------Redox couples---------------------------------

	Redox couple             pe  Eh (volts)

	N(-3)/N(3)           5.3304      0.3153
	N(-3)/N(5)           5.9091      0.3496
	N(3)/N(5)            7.6452      0.4523

----------------------------Distribution of species----------------------------

                                               Log       Log       Log    mole V
   Species          Molality    Activity  Molality  Activity     Gamma   cm³/mol

   OH-             1.353e-07   9.974e-08    -6.869    -7.001    -0.133     (0)  
   H+              1.231e-07   1.000e-07    -6.910    -7.000    -0.090      0.00
   H2O             5.551e+01   9.964e-01     1.744    -0.002     0.000     18.07
Al            7.466e-08
   Al(OH)4-        6.942e-08   5.240e-08    -7.159    -7.281    -0.122     (0)  
   Al(OH)3         2.703e-09   2.790e-09    -8.568    -8.554     0.014     (0)  
   Al(OH)2+        2.472e-09   1.901e-09    -8.607    -8.721    -0.114     (0)  
   AlOH+2          6.959e-11   2.434e-11   -10.157   -10.614    -0.456     (0)  
   Al+3            1.595e-12   2.459e-13   -11.797   -12.609    -0.812     (0)  
   AlSO4+          3.959e-13   2.989e-13   -12.402   -12.525    -0.122     (0)  
   Al(SO4)2-       4.811e-15   3.632e-15   -14.318   -14.440    -0.122     (0)  
   AlHSO4+2        7.778e-21   2.650e-21   -20.109   -20.577    -0.468     (0)  
C(4)          1.246e-02
   HCO3-           9.675e-03   7.440e-03    -2.014    -2.128    -0.114     (0)  
   CO2             1.627e-03   1.679e-03    -2.789    -2.775     0.014     (0)  
   CaHCO3+         6.229e-04   4.844e-04    -3.206    -3.315    -0.109     (0)  
   MgHCO3+         2.357e-04   1.759e-04    -3.628    -3.755    -0.127     (0)  
   NaHCO3          1.755e-04   1.812e-04    -3.756    -3.742     0.014     (0)  
   FeHCO3+         5.297e-05   4.047e-05    -4.276    -4.393    -0.117     (0)  
   CaCO3           2.891e-05   2.984e-05    -4.539    -4.525     0.014     (0)  
   MnHCO3+         1.208e-05   9.215e-06    -4.918    -5.036    -0.118     (0)  
   CO3-2           9.976e-06   3.489e-06    -5.001    -5.457    -0.456     (0)  
   MgCO3           6.518e-06   6.728e-06    -5.186    -5.172     0.014     (0)  
   FeCO3           4.411e-06   4.553e-06    -5.355    -5.342     0.014     (0)  
   MnCO3           3.731e-06   3.851e-06    -5.428    -5.414     0.014     (0)  
   NaCO3-          3.659e-06   2.814e-06    -5.437    -5.551    -0.114     (0)  
   ZnHCO3+         1.792e-08   1.369e-08    -7.747    -7.863    -0.117     (0)  
   ZnCO3           9.862e-09   1.018e-08    -8.006    -7.992     0.014     (0)  
   NiCO3           7.109e-09   7.337e-09    -8.148    -8.134     0.014     (0)  
   Zn(CO3)2-2      2.229e-09   7.593e-10    -8.652    -9.120    -0.468     (0)  
   NiHCO3+         3.813e-10   2.913e-10    -9.419    -9.536    -0.117     (0)  
   Ni(CO3)2-2      1.306e-10   4.449e-11    -9.884   -10.352    -0.468     (0)  
Ca            1.533e-02
   Ca+2            1.430e-02   5.104e-03    -1.845    -2.292    -0.447     (0)  
   CaHCO3+         6.229e-04   4.844e-04    -3.206    -3.315    -0.109     (0)  
   CaSO4           3.792e-04   3.913e-04    -3.421    -3.407     0.014     (0)  
   CaCO3           2.891e-05   2.984e-05    -4.539    -4.525     0.014     (0)  
   CaHPO4          4.352e-07   4.492e-07    -6.361    -6.348     0.014     (0)  
   CaH2PO4+        4.390e-08   3.376e-08    -7.358    -7.472    -0.114     (0)  
   CaPO4-          1.382e-08   1.063e-08    -7.860    -7.974    -0.114     (0)  
   CaOH+           1.085e-08   8.440e-09    -7.964    -8.074    -0.109     (0)  
   CaHSO4+         3.001e-10   2.293e-10    -9.523    -9.640    -0.117     (0)  
Cl            1.213e-01
   Cl-             1.213e-01   8.982e-02    -0.916    -1.047    -0.131     (0)  
   FeCl+           8.840e-06   6.744e-06    -5.054    -5.171    -0.118     (0)  
   MnCl+           6.664e-06   5.085e-06    -5.176    -5.294    -0.118     (0)  
   MnCl2           1.931e-07   1.994e-07    -6.714    -6.700     0.014     (0)  
   MnCl3-          6.464e-09   4.932e-09    -8.190    -8.307    -0.118     (0)  
   ZnCl+           4.736e-09   3.534e-09    -8.325    -8.452    -0.127     (0)  
   ZnOHCl          4.197e-10   4.332e-10    -9.377    -9.363     0.014     (0)  
   ZnCl2           3.221e-10   3.324e-10    -9.492    -9.478     0.014     (0)  
   NiCl+           8.377e-11   6.400e-11   -10.077   -10.194    -0.117     (0)  
   ZnCl3-          4.489e-11   3.350e-11   -10.348   -10.475    -0.127     (0)  
   NiCl2           2.022e-11   2.087e-11   -10.694   -10.680     0.014     (0)  
   ZnCl4-2         4.451e-12   1.508e-12   -11.352   -11.822    -0.470     (0)  
   FeCl+2          4.159e-13   1.409e-13   -12.381   -12.851    -0.470     (0)  
   FeCl2+          7.400e-14   5.653e-14   -13.131   -13.248    -0.117     (0)  
   FeCl3           4.920e-16   5.078e-16   -15.308   -15.294     0.014     (0)  
Fe(2)         2.189e-04
   Fe+2            1.488e-04   5.440e-05    -3.827    -4.264    -0.437     (0)  
   FeHCO3+         5.297e-05   4.047e-05    -4.276    -4.393    -0.117     (0)  
   FeCl+           8.840e-06   6.744e-06    -5.054    -5.171    -0.118     (0)  
   FeCO3           4.411e-06   4.553e-06    -5.355    -5.342     0.014     (0)  
   FeSO4           3.601e-06   3.717e-06    -5.444    -5.430     0.014     (0)  
   FeOH+           2.246e-07   1.714e-07    -6.649    -6.766    -0.118     (0)  
   FeHPO4          3.368e-08   3.476e-08    -7.473    -7.459     0.014     (0)  
   FeH2PO4+        9.165e-09   7.048e-09    -8.038    -8.152    -0.114     (0)  
   Fe(OH)2         1.408e-11   1.453e-11   -10.851   -10.838     0.014     (0)  
   FeHSO4+         3.198e-12   2.443e-12   -11.495   -11.612    -0.117     (0)  
   Fe(OH)3-        7.052e-15   5.380e-15   -14.152   -14.269    -0.118     (0)  
Fe(3)         2.823e-05
   Fe(OH)2+        1.434e-05   1.103e-05    -4.844    -4.958    -0.114     (0)  
   Fe(OH)3         1.371e-05   1.415e-05    -4.863    -4.849     0.014     (0)  
   Fe(OH)4-        1.672e-07   1.286e-07    -6.777    -6.891    -0.114     (0)  
   FeOH+2          9.864e-09   3.342e-09    -8.006    -8.476    -0.470     (0)  
   FeCl+2          4.159e-13   1.409e-13   -12.381   -12.851    -0.470     (0)  
   Fe+3            3.368e-13   5.195e-14   -12.473   -13.284    -0.812     (0)  
   FeSO4+          2.869e-13   2.189e-13   -12.542   -12.660    -0.118     (0)  
   FeCl2+          7.400e-14   5.653e-14   -13.131   -13.248    -0.117     (0)  
   Fe2(OH)2+4      2.231e-14   3.006e-16   -13.652   -15.522    -1.870     (0)  
   FeH2PO4+2       1.033e-14   3.615e-15   -13.986   -14.442    -0.456     (0)  
   FeHPO4+         2.913e-15   2.244e-15   -14.536   -14.649    -0.113     (0)  
   Fe(SO4)2-       2.408e-15   1.840e-15   -14.618   -14.735    -0.117     (0)  
   Fe3(OH)4+5      5.794e-16   6.924e-19   -15.237   -18.160    -2.923     (0)  
   FeCl3           4.920e-16   5.078e-16   -15.308   -15.294     0.014     (0)  
   FeHSO4+2        1.720e-19   5.861e-20   -18.764   -19.232    -0.468     (0)  
H(0)          1.372e-25
   H2              6.859e-26   7.079e-26   -25.164   -25.150     0.014     (0)  
K             9.995e-04
   K+              9.969e-04   7.382e-04    -3.001    -3.132    -0.131     (0)  
   KSO4-           2.592e-06   1.993e-06    -5.586    -5.700    -0.114     (0)  
   KHPO4-          3.004e-10   2.310e-10    -9.522    -9.636    -0.114     (0)  
Mg            5.800e-03
   Mg+2            5.381e-03   2.021e-03    -2.269    -2.695    -0.425     (0)  
   MgHCO3+         2.357e-04   1.759e-04    -3.628    -3.755    -0.127     (0)  
   MgSO4           1.763e-04   1.820e-04    -3.754    -3.740     0.014     (0)  
   MgCO3           6.518e-06   6.728e-06    -5.186    -5.172     0.014     (0)  
   MgHPO4          2.329e-07   2.404e-07    -6.633    -6.619     0.014     (0)  
   MgOH+           9.320e-08   7.309e-08    -7.031    -7.136    -0.106     (0)  
   MgH2PO4+        2.213e-08   1.702e-08    -7.655    -7.769    -0.114     (0)  
   MgPO4-          7.379e-09   5.675e-09    -8.132    -8.246    -0.114     (0)  
Mn(2)         6.160e-05
   Mn+2            3.801e-05   1.390e-05    -4.420    -4.857    -0.437     (0)  
   MnHCO3+         1.208e-05   9.215e-06    -4.918    -5.036    -0.118     (0)  
   MnCl+           6.664e-06   5.085e-06    -5.176    -5.294    -0.118     (0)  
   MnCO3           3.731e-06   3.851e-06    -5.428    -5.414     0.014     (0)  
   MnSO4           9.200e-07   9.496e-07    -6.036    -6.022     0.014     (0)  
   MnCl2           1.931e-07   1.994e-07    -6.714    -6.700     0.014     (0)  
   MnCl3-          6.464e-09   4.932e-09    -8.190    -8.307    -0.118     (0)  
   MnOH+           4.665e-09   3.559e-09    -8.331    -8.449    -0.118     (0)  
   Mn(NO3)2        7.090e-15   7.318e-15   -14.149   -14.136     0.014     (0)  
   Mn(OH)3-        2.855e-19   2.178e-19   -18.544   -18.662    -0.118     (0)  
Mn(3)         2.784e-26
   Mn+3            2.784e-26   4.294e-27   -25.555   -26.367    -0.812     (0)  
Mn(6)         0.000e+00
   MnO4-2          0.000e+00   0.000e+00   -50.833   -51.303    -0.470     (0)  
Mn(7)         0.000e+00
   MnO4-           0.000e+00   0.000e+00   -56.549   -56.687    -0.138     (0)  
N(-3)         9.787e-04
   NH4+            9.697e-04   7.409e-04    -3.013    -3.130    -0.117     (0)  
   NH4SO4-         4.807e-06   3.668e-06    -5.318    -5.436    -0.118     (0)  
   NH3             4.222e-06   4.222e-06    -5.374    -5.374     0.000     (0)  
N(3)          2.877e-06
   NO2-            2.877e-06   2.198e-06    -5.541    -5.658    -0.117     (0)  
N(5)          1.582e-05
   NO3-            1.582e-05   1.150e-05    -4.801    -4.939    -0.138     (0)  
   Mn(NO3)2        7.090e-15   7.318e-15   -14.149   -14.136     0.014     (0)  
Na            5.696e-02
   Na+             5.667e-02   4.330e-02    -1.247    -1.363    -0.117     (0)  
   NaHCO3          1.755e-04   1.812e-04    -3.756    -3.742     0.014     (0)  
   NaSO4-          1.084e-04   8.340e-05    -3.965    -4.079    -0.114     (0)  
   NaCO3-          3.659e-06   2.814e-06    -5.437    -5.551    -0.114     (0)  
   NaHPO4-         1.762e-08   1.355e-08    -7.754    -7.868    -0.114     (0)  
Ni            8.578e-09
   NiCO3           7.109e-09   7.337e-09    -8.148    -8.134     0.014     (0)  
   Ni+2            8.326e-10   2.837e-10    -9.080    -9.547    -0.468     (0)  
   NiHCO3+         3.813e-10   2.913e-10    -9.419    -9.536    -0.117     (0)  
   Ni(CO3)2-2      1.306e-10   4.449e-11    -9.884   -10.352    -0.468     (0)  
   NiCl+           8.377e-11   6.400e-11   -10.077   -10.194    -0.117     (0)  
   NiSO4           2.059e-11   2.125e-11   -10.686   -10.673     0.014     (0)  
   NiCl2           2.022e-11   2.087e-11   -10.694   -10.680     0.014     (0)  
   NiOH+           5.106e-13   3.901e-13   -12.292   -12.409    -0.117     (0)  
   Ni(OH)2         2.728e-15   2.816e-15   -14.564   -14.550     0.014     (0)  
   Ni(SO4)2-2      1.287e-15   4.386e-16   -14.890   -15.358    -0.468     (0)  
   Ni(OH)3-        3.672e-19   2.806e-19   -18.435   -18.552    -0.117     (0)  
O(0)          0.000e+00
   O2              0.000e+00   0.000e+00   -42.097   -42.083     0.014     (0)  
P             1.626e-06
   HPO4-2          4.737e-07   1.605e-07    -6.324    -6.795    -0.470     (0)  
   CaHPO4          4.352e-07   4.492e-07    -6.361    -6.348     0.014     (0)  
   H2PO4-          3.362e-07   2.585e-07    -6.473    -6.588    -0.114     (0)  
   MgHPO4          2.329e-07   2.404e-07    -6.633    -6.619     0.014     (0)  
   CaH2PO4+        4.390e-08   3.376e-08    -7.358    -7.472    -0.114     (0)  
   FeHPO4          3.368e-08   3.476e-08    -7.473    -7.459     0.014     (0)  
   MgH2PO4+        2.213e-08   1.702e-08    -7.655    -7.769    -0.114     (0)  
   NaHPO4-         1.762e-08   1.355e-08    -7.754    -7.868    -0.114     (0)  
   CaPO4-          1.382e-08   1.063e-08    -7.860    -7.974    -0.114     (0)  
   FeH2PO4+        9.165e-09   7.048e-09    -8.038    -8.152    -0.114     (0)  
   MgPO4-          7.379e-09   5.675e-09    -8.132    -8.246    -0.114     (0)  
   KHPO4-          3.004e-10   2.310e-10    -9.522    -9.636    -0.114     (0)  
   PO4-3           8.262e-12   7.236e-13   -11.083   -12.141    -1.058     (0)  
   FeH2PO4+2       1.033e-14   3.615e-15   -13.986   -14.442    -0.456     (0)  
   FeHPO4+         2.913e-15   2.244e-15   -14.536   -14.649    -0.113     (0)  
S(6)          1.825e-03
   SO4-2           1.149e-03   3.843e-04    -2.940    -3.415    -0.476     (0)  
   CaSO4           3.792e-04   3.913e-04    -3.421    -3.407     0.014     (0)  
   MgSO4           1.763e-04   1.820e-04    -3.754    -3.740     0.014     (0)  
   NaSO4-          1.084e-04   8.340e-05    -3.965    -4.079    -0.114     (0)  
   NH4SO4-         4.807e-06   3.668e-06    -5.318    -5.436    -0.118     (0)  
   FeSO4           3.601e-06   3.717e-06    -5.444    -5.430     0.014     (0)  
   KSO4-           2.592e-06   1.993e-06    -5.586    -5.700    -0.114     (0)  
   MnSO4           9.200e-07   9.496e-07    -6.036    -6.022     0.014     (0)  
   HSO4-           4.949e-09   3.736e-09    -8.305    -8.428    -0.122     (0)  
   ZnSO4           1.276e-09   1.317e-09    -8.894    -8.880     0.014     (0)  
   CaHSO4+         3.001e-10   2.293e-10    -9.523    -9.640    -0.117     (0)  
   NiSO4           2.059e-11   2.125e-11   -10.686   -10.673     0.014     (0)  
   Zn(SO4)2-2      1.207e-11   4.114e-12   -10.918   -11.386    -0.468     (0)  
   FeHSO4+         3.198e-12   2.443e-12   -11.495   -11.612    -0.117     (0)  
   AlSO4+          3.959e-13   2.989e-13   -12.402   -12.525    -0.122     (0)  
   FeSO4+          2.869e-13   2.189e-13   -12.542   -12.660    -0.118     (0)  
   Al(SO4)2-       4.811e-15   3.632e-15   -14.318   -14.440    -0.122     (0)  
   Fe(SO4)2-       2.408e-15   1.840e-15   -14.618   -14.735    -0.117     (0)  
   Ni(SO4)2-2      1.287e-15   4.386e-16   -14.890   -15.358    -0.468     (0)  
   FeHSO4+2        1.720e-19   5.861e-20   -18.764   -19.232    -0.468     (0)  
   AlHSO4+2        7.778e-21   2.650e-21   -20.109   -20.577    -0.468     (0)  
Zn            7.704e-08
   Zn+2            3.999e-08   1.462e-08    -7.398    -7.835    -0.437     (0)  
   ZnHCO3+         1.792e-08   1.369e-08    -7.747    -7.863    -0.117     (0)  
   ZnCO3           9.862e-09   1.018e-08    -8.006    -7.992     0.014     (0)  
   ZnCl+           4.736e-09   3.534e-09    -8.325    -8.452    -0.127     (0)  
   Zn(CO3)2-2      2.229e-09   7.593e-10    -8.652    -9.120    -0.468     (0)  
   ZnSO4           1.276e-09   1.317e-09    -8.894    -8.880     0.014     (0)  
   ZnOHCl          4.197e-10   4.332e-10    -9.377    -9.363     0.014     (0)  
   ZnCl2           3.221e-10   3.324e-10    -9.492    -9.478     0.014     (0)  
   ZnOH+           2.091e-10   1.597e-10    -9.680    -9.797    -0.117     (0)  
   ZnCl3-          4.489e-11   3.350e-11   -10.348   -10.475    -0.127     (0)  
   Zn(OH)2         1.770e-11   1.827e-11   -10.752   -10.738     0.014     (0)  
   Zn(SO4)2-2      1.207e-11   4.114e-12   -10.918   -11.386    -0.468     (0)  
   ZnCl4-2         4.451e-12   1.508e-12   -11.352   -11.822    -0.470     (0)  
   Zn(OH)3-        7.535e-16   5.757e-16   -15.123   -15.240    -0.117     (0)  
   Zn(OH)4-2       2.668e-21   9.091e-22   -20.574   -21.041    -0.468     (0)  

------------------------------Saturation indices-------------------------------

  Phase               SI** log IAP   log K(298 K,   1 atm)

  Al(OH)3(a)       -2.41      8.39   10.80  Al(OH)3
  AlumK           -17.42    -22.59   -5.17  KAl(SO4)2:12H2O
  Alunite          -4.40     -5.80   -1.40  KAl3(SO4)2(OH)6
  Anhydrite        -1.35     -5.71   -4.36  CaSO4
  Aragonite         0.59     -7.75   -8.34  CaCO3
  Artinite         -6.45      3.15    9.60  MgCO3:Mg(OH)2:3H2O
  Basaluminite     -6.57     16.13   22.70  Al4(OH)10SO4
  Bianchite        -9.49    -11.26   -1.76  ZnSO4:6H2O
  Birnessite      -12.46     31.14   43.60  MnO2
  Bixbyite        -10.13    -10.74   -0.61  Mn2O3
  Boehmite         -0.20      8.39    8.58  AlOOH
  Brucite          -5.54     11.30   16.84  Mg(OH)2
  Bunsenite        -8.00      4.45   12.45  NiO
  Calcite           0.73     -7.75   -8.48  CaCO3
  CO2(g)           -1.31     -2.77   -1.47  CO2
  Diaspore          1.51      8.39    6.88  AlOOH
  Dolomite          1.19    -15.90  -17.09  CaMg(CO3)2
  Dolomite(d)       0.64    -15.90  -16.54  CaMg(CO3)2
  Epsomite         -3.98     -6.12   -2.14  MgSO4:7H2O
  Fe(OH)2.7Cl.3     8.34      5.30   -3.04  Fe(OH)2.7Cl0.3
  Fe(OH)3(a)        2.82      7.71    4.89  Fe(OH)3
  Fe3(OH)8          4.93     25.15   20.22  Fe3(OH)8
  Gibbsite          0.28      8.39    8.11  Al(OH)3
  Goethite          8.71      7.71   -1.00  FeOOH
  Goslarite        -9.30    -11.26   -1.96  ZnSO4:7H2O
  Gypsum           -1.13     -5.71   -4.58  CaSO4:2H2O
  H2(g)           -22.00    -25.15   -3.15  H2
  H2O(g)           -1.51     -0.00    1.51  H2O
  Halite           -3.99     -2.41    1.58  NaCl
  Hausmannite     -11.61     49.42   61.03  Mn3O4
  Hematite         19.43     15.43   -4.01  Fe2O3
  Huntite          -2.24    -32.20  -29.97  CaMg3(CO3)4
  Hydromagnesite  -12.55    -21.31   -8.76  Mg5(CO3)4(OH)2:4H2O
  Hydroxyapatite   -0.42     -3.85   -3.42  Ca5(PO4)3OH
  Jarosite(ss)      1.28     -8.55   -9.83  (K0.77Na0.03H0.2)Fe3(SO4)2(OH)6
  Jarosite-K        1.38     -7.83   -9.21  KFe3(SO4)2(OH)6
  Jarosite-Na      -0.78     -6.06   -5.28  NaFe3(SO4)2(OH)6
  JarositeH        -6.31    -11.70   -5.39  (H3O)Fe3(SO4)2(OH)6
  Jurbanite        -5.80     -9.03   -3.23  AlOHSO4
  Maghemite         9.04     15.43    6.39  Fe2O3
  Magnesite        -0.12     -8.15   -8.03  MgCO3
  Magnetite        21.42     25.16    3.74  Fe3O4
  Manganite        -5.20     20.14   25.34  MnOOH
  Melanterite      -5.48     -7.69   -2.21  FeSO4:7H2O
  Mirabilite       -5.04     -6.16   -1.11  Na2SO4:10H2O
  Mn2(SO4)3       -57.27    -62.98   -5.71  Mn2(SO4)3
  Mn3(PO4)2       -15.03    -38.85  -23.83  Mn3(PO4)2
  MnCl2:4H2O       -9.67     -6.96    2.71  MnCl2:4H2O
  MnHPO4            1.30    -11.65  -12.95  MnHPO4
  MnSO4           -10.94     -8.27    2.67  MnSO4
  Morenosite      -10.61    -12.97   -2.36  NiSO4:7H2O
  Nahcolite        -2.94     -3.49   -0.55  NaHCO3
  Natron           -6.89     -8.20   -1.31  Na2CO3:10H2O
  Nesquehonite     -2.54     -8.16   -5.62  MgCO3:3H2O
  NH3(g)           -7.14     -5.37    1.77  NH3
  Ni(OH)2          -6.35      4.45   10.80  Ni(OH)2
  Ni3(PO4)2       -21.62    -52.92  -31.30  Ni3(PO4)2
  Ni4(OH)6SO4     -31.61      0.39   32.00  Ni4(OH)6SO4
  NiCO3            -8.16    -15.00   -6.84  NiCO3
  Nsutite         -11.42     31.14   42.56  MnO2
  O2(g)           -39.19    -42.08   -2.89  O2
  Portlandite     -11.10     11.70   22.80  Ca(OH)2
  Pyrochroite      -6.06      9.14   15.20  Mn(OH)2
  Pyrolusite      -10.24     31.14   41.38  MnO2
  Retgersite      -10.93    -12.97   -2.04  NiSO4:6H2O
  Rhodochrosite     0.82    -10.31  -11.13  MnCO3
  Rhodochrosite(d)   0.08    -10.31  -10.39  MnCO3
  Siderite          1.17     -9.72  -10.89  FeCO3
  Siderite(d)(3)    0.73     -9.72  -10.45  FeCO3
  Smithsonite      -3.29    -13.29  -10.00  ZnCO3
  Strengite         0.97    -25.43  -26.40  FePO4:2H2O
  Thenardite       -5.96     -6.14   -0.18  Na2SO4
  Thermonatrite    -8.31     -8.19    0.13  Na2CO3:H2O
  Trona           -10.88    -11.68   -0.80  NaHCO3:Na2CO3:2H2O
  Vivianite        -1.09    -37.09  -36.00  Fe3(PO4)2:8H2O
  Zincite(c)       -4.98      6.16   11.14  ZnO
  Zincosite       -14.26    -11.25    3.01  ZnSO4
  Zn(NO3)2:6H2O   -21.16    -17.72    3.44  Zn(NO3)2:6H2O
  Zn(OH)2-a        -6.29      6.16   12.45  Zn(OH)2
  Zn(OH)2-b        -5.59      6.16   11.75  Zn(OH)2
  Zn(OH)2-c        -6.04      6.16   12.20  Zn(OH)2
  Zn(OH)2-e        -5.34      6.16   11.50  Zn(OH)2
  Zn(OH)2-g        -5.55      6.16   11.71  Zn(OH)2
  Zn2(OH)2SO4     -12.59     -5.09    7.50  Zn2(OH)2SO4
  Zn2(OH)3Cl      -10.92      4.28   15.20  Zn2(OH)3Cl
  Zn3(PO4)2:4w    -15.75    -47.79  -32.04  Zn3(PO4)2:4H2O
  Zn3O(SO4)2      -35.36    -16.34   19.02  ZnO:2ZnSO4
  Zn4(OH)6SO4     -21.17      7.23   28.40  Zn4(OH)6SO4
  Zn5(OH)8Cl2     -23.78     14.72   38.50  Zn5(OH)8Cl2
  ZnCl2           -16.96     -9.93    7.03  ZnCl2
  ZnCO3:H2O        -3.03    -13.29  -10.26  ZnCO3:H2O
  ZnMetal         -41.59    -15.84   25.76  Zn
  ZnO(a)           -5.15      6.16   11.31  ZnO
  ZnSO4:H2O       -10.68    -11.25   -0.57  ZnSO4:H2O

**For a gas, SI = log10(fugacity). Fugacity = pressure * phi / 1 atm.
  For ideal gases, phi = 1.

Initial solution 2.	 test2 

-----------------------------Solution composition------------------------------

	Elements           Molality       Moles

	Al                4.774e-08   4.774e-08
	Ba                6.481e-05   6.481e-05
	Ca                5.739e-05   5.739e-05
	Cl                5.642e-07   5.642e-07
	F                 7.896e-05   7.896e-05
	K                 1.841e-04   1.841e-04
	Mg                2.921e-05   2.921e-05
	Mn                2.367e-04   2.367e-04
	N(5)              2.152e-03   2.152e-03
	Na                4.785e-07   4.785e-07
	Ni                3.407e-07   3.407e-07
	S(6)              1.666e-07   1.666e-07
	Si                3.662e-04   3.662e-04
	Zn                4.590e-10   4.590e-10

----------------------------Description of solution----------------------------

                                       pH  =   7.000    
                                       pe  =   4.000    
                        Activity of water  =   1.000
                 Ionic strength (mol/kgw)  =   1.985e-03
                       Mass of water (kg)  =   1.000e+00
                 Total alkalinity (eq/kg)  =   7.604e-07
                    Total carbon (mol/kg)  =   0.000e+00
                       Total CO2 (mol/kg)  =   0.000e+00
                         Temperature (°C)  =  25.00
                  Electrical balance (eq)  =  -1.271e-03
 Percent error, 100*(Cat-|An|)/(Cat+|An|)  = -39.80
                               Iterations  =   5
                                  Total H  = 1.110139e+02
                                  Total O  = 5.551414e+01

----------------------------Distribution of species----------------------------

                                               Log       Log       Log    mole V
   Species          Molality    Activity  Molality  Activity     Gamma   cm³/mol

   OH-             1.052e-07   1.001e-07    -6.978    -7.000    -0.022     (0)  
   H+              1.047e-07   1.000e-07    -6.980    -7.000    -0.020      0.00
   H2O             5.551e+01   9.999e-01     1.744    -0.000     0.000     18.07
Al            4.774e-08
   Al(OH)4-        3.560e-08   3.390e-08    -7.449    -7.470    -0.021     (0)  
   AlF2+           4.621e-09   4.403e-09    -8.335    -8.356    -0.021     (0)  
   AlF3            4.146e-09   4.148e-09    -8.382    -8.382     0.000     (0)  
   Al(OH)3         1.798e-09   1.799e-09    -8.745    -8.745     0.000     (0)  
   Al(OH)2+        1.281e-09   1.221e-09    -8.892    -8.913    -0.021     (0)  
   AlF+2           1.425e-10   1.174e-10    -9.846    -9.930    -0.084     (0)  
   AlF4-           1.298e-10   1.236e-10    -9.887    -9.908    -0.021     (0)  
   AlOH+2          1.891e-11   1.558e-11   -10.723   -10.808    -0.084     (0)  
   Al+3            2.377e-13   1.568e-13   -12.624   -12.805    -0.181     (0)  
   AlSO4+          6.708e-17   6.387e-17   -16.173   -16.195    -0.021     (0)  
   Al(SO4)2-       2.732e-22   2.601e-22   -21.563   -21.585    -0.021     (0)  
   AlHSO4+2        6.900e-25   5.663e-25   -24.161   -24.247    -0.086     (0)  
Ba            6.481e-05
   Ba+2            6.480e-05   5.332e-05    -4.188    -4.273    -0.085     (0)  
   BaSO4           3.440e-09   3.442e-09    -8.463    -8.463     0.000     (0)  
   BaOH+           1.897e-11   1.807e-11   -10.722   -10.743    -0.021     (0)  
Ca            5.739e-05
   Ca+2            5.736e-05   4.723e-05    -4.241    -4.326    -0.084     (0)  
   CaF+            3.232e-08   3.079e-08    -7.491    -7.512    -0.021     (0)  
   CaSO4           1.213e-09   1.214e-09    -8.916    -8.916     0.000     (0)  
   CaOH+           8.224e-11   7.838e-11   -10.085   -10.106    -0.021     (0)  
   CaHSO4+         7.470e-16   7.110e-16   -15.127   -15.148    -0.021     (0)  
Cl            5.642e-07
   Cl-             5.637e-07   5.364e-07    -6.249    -6.271    -0.022     (0)  
   MnCl+           4.476e-10   4.263e-10    -9.349    -9.370    -0.021     (0)  
   NiCl+           3.948e-13   3.758e-13   -12.404   -12.425    -0.021     (0)  
   ZnCl+           5.678e-16   5.404e-16   -15.246   -15.267    -0.021     (0)  
   MnCl2           9.977e-17   9.982e-17   -16.001   -16.001     0.000     (0)  
   ZnOHCl          6.645e-17   6.649e-17   -16.177   -16.177     0.000     (0)  
   NiCl2           7.315e-19   7.319e-19   -18.136   -18.136     0.000     (0)  
   ZnCl2           3.034e-22   3.036e-22   -21.518   -21.518     0.000     (0)  
   MnCl3-          1.548e-23   1.475e-23   -22.810   -22.831    -0.021     (0)  
   ZnCl3-          1.919e-28   1.827e-28   -27.717   -27.738    -0.021     (0)  
   ZnCl4-2         5.969e-35   4.911e-35   -34.224   -34.309    -0.085     (0)  
F             7.896e-05
   F-              7.866e-05   7.484e-05    -4.104    -4.126    -0.022     (0)  
   MgF+            1.246e-07   1.186e-07    -6.905    -6.926    -0.021     (0)  
   MnF+            1.061e-07   1.010e-07    -6.974    -6.996    -0.021     (0)  
   CaF+            3.232e-08   3.079e-08    -7.491    -7.512    -0.021     (0)  
   HF              1.122e-08   1.122e-08    -7.950    -7.950     0.000     (0)  
   AlF2+           4.621e-09   4.403e-09    -8.335    -8.356    -0.021     (0)  
   AlF3            4.146e-09   4.148e-09    -8.382    -8.382     0.000     (0)  
   NiF+            4.376e-10   4.165e-10    -9.359    -9.380    -0.021     (0)  
   AlF+2           1.425e-10   1.174e-10    -9.846    -9.930    -0.084     (0)  
   AlF4-           1.298e-10   1.236e-10    -9.887    -9.908    -0.021     (0)  
   NaF             1.961e-11   1.962e-11   -10.707   -10.707     0.000     (0)  
   HF2-            3.388e-12   3.223e-12   -11.470   -11.492    -0.022     (0)  
   ZnF+            4.158e-13   3.958e-13   -12.381   -12.403    -0.021     (0)  
   H2F2            3.282e-16   3.283e-16   -15.484   -15.484     0.000     (0)  
   SiF6-2          1.183e-26   9.734e-27   -25.927   -26.012    -0.085     (0)  
H(0)          1.415e-25
   H2              7.076e-26   7.079e-26   -25.150   -25.150     0.000     (0)  
K             1.841e-04
   K+              1.841e-04   1.752e-04    -3.735    -3.756    -0.022     (0)  
   KSO4-           1.664e-10   1.586e-10    -9.779    -9.800    -0.021     (0)  
Mg            2.921e-05
   Mg+2            2.908e-05   2.398e-05    -4.536    -4.620    -0.084     (0)  
   MgF+            1.246e-07   1.186e-07    -6.905    -6.926    -0.021     (0)  
   MgOH+           9.133e-10   8.707e-10    -9.039    -9.060    -0.021     (0)  
   MgSO4           7.237e-10   7.240e-10    -9.140    -9.140     0.000     (0)  
Mn(2)         2.367e-04
   Mn+2            2.365e-04   1.951e-04    -3.626    -3.710    -0.084     (0)  
   MnF+            1.061e-07   1.010e-07    -6.974    -6.996    -0.021     (0)  
   MnOH+           5.265e-08   5.014e-08    -7.279    -7.300    -0.021     (0)  
   MnSO4           4.466e-09   4.468e-09    -8.350    -8.350     0.000     (0)  
   Mn(NO3)2        3.252e-09   3.254e-09    -8.488    -8.488     0.000     (0)  
   MnCl+           4.476e-10   4.263e-10    -9.349    -9.370    -0.021     (0)  
   MnCl2           9.977e-17   9.982e-17   -16.001   -16.001     0.000     (0)  
   Mn(OH)3-        3.246e-18   3.092e-18   -17.489   -17.510    -0.021     (0)  
   MnCl3-          1.548e-23   1.475e-23   -22.810   -22.831    -0.021     (0)  
Mn(3)         9.140e-26
   Mn+3            9.140e-26   6.029e-26   -25.039   -25.220    -0.181     (0)  
Mn(6)         0.000e+00
   MnO4-2          0.000e+00   0.000e+00   -50.065   -50.150    -0.085     (0)  
Mn(7)         0.000e+00
   MnO4-           0.000e+00   0.000e+00   -55.512   -55.534    -0.022     (0)  
N(5)          2.152e-03
   NO3-            2.152e-03   2.047e-03    -2.667    -2.689    -0.022     (0)  
   Mn(NO3)2        3.252e-09   3.254e-09    -8.488    -8.488     0.000     (0)  
Na            4.785e-07
   Na+             4.785e-07   4.556e-07    -6.320    -6.341    -0.021     (0)  
   NaF             1.961e-11   1.962e-11   -10.707   -10.707     0.000     (0)  
   NaSO4-          3.087e-13   2.941e-13   -12.510   -12.532    -0.021     (0)  
Ni            3.407e-07
   Ni+2            3.398e-07   2.789e-07    -6.469    -6.555    -0.086     (0)  
   NiF+            4.376e-10   4.165e-10    -9.359    -9.380    -0.021     (0)  
   NiOH+           4.045e-10   3.850e-10    -9.393    -9.415    -0.021     (0)  
   NiSO4           7.001e-12   7.004e-12   -11.155   -11.155     0.000     (0)  
   Ni(OH)2         2.788e-12   2.789e-12   -11.555   -11.555     0.000     (0)  
   NiCl+           3.948e-13   3.758e-13   -12.404   -12.425    -0.021     (0)  
   Ni(OH)3-        2.930e-16   2.789e-16   -15.533   -15.555    -0.021     (0)  
   NiCl2           7.315e-19   7.319e-19   -18.136   -18.136     0.000     (0)  
   Ni(SO4)2-2      5.903e-20   4.845e-20   -19.229   -19.315    -0.086     (0)  
O(0)          0.000e+00
   O2              0.000e+00   0.000e+00   -42.080   -42.080     0.000     (0)  
S(6)          1.666e-07
   SO4-2           1.566e-07   1.288e-07    -6.805    -6.890    -0.085     (0)  
   MnSO4           4.466e-09   4.468e-09    -8.350    -8.350     0.000     (0)  
   BaSO4           3.440e-09   3.442e-09    -8.463    -8.463     0.000     (0)  
   CaSO4           1.213e-09   1.214e-09    -8.916    -8.916     0.000     (0)  
   MgSO4           7.237e-10   7.240e-10    -9.140    -9.140     0.000     (0)  
   KSO4-           1.664e-10   1.586e-10    -9.779    -9.800    -0.021     (0)  
   NiSO4           7.001e-12   7.004e-12   -11.155   -11.155     0.000     (0)  
   HSO4-           1.315e-12   1.252e-12   -11.881   -11.902    -0.021     (0)  
   NaSO4-          3.087e-13   2.941e-13   -12.510   -12.532    -0.021     (0)  
   ZnSO4           1.130e-14   1.130e-14   -13.947   -13.947     0.000     (0)  
   CaHSO4+         7.470e-16   7.110e-16   -15.127   -15.148    -0.021     (0)  
   AlSO4+          6.708e-17   6.387e-17   -16.173   -16.195    -0.021     (0)  
   Ni(SO4)2-2      5.903e-20   4.845e-20   -19.229   -19.315    -0.086     (0)  
   Zn(SO4)2-2      1.442e-20   1.183e-20   -19.841   -19.927    -0.086     (0)  
   Al(SO4)2-       2.732e-22   2.601e-22   -21.563   -21.585    -0.021     (0)  
   AlHSO4+2        6.900e-25   5.663e-25   -24.161   -24.247    -0.086     (0)  
Si            3.662e-04
   H4SiO4          3.656e-04   3.658e-04    -3.437    -3.437     0.000     (0)  
   H3SiO4-         5.667e-07   5.393e-07    -6.247    -6.268    -0.021     (0)  
   H2SiO4-2        4.454e-13   3.669e-13   -12.351   -12.435    -0.084     (0)  
   SiF6-2          1.183e-26   9.734e-27   -25.927   -26.012    -0.085     (0)  
Zn            4.590e-10
   Zn+2            4.538e-10   3.743e-10    -9.343    -9.427    -0.084     (0)  
   ZnOH+           4.312e-12   4.104e-12   -11.365   -11.387    -0.021     (0)  
   Zn(OH)2         4.710e-13   4.712e-13   -12.327   -12.327     0.000     (0)  
   ZnF+            4.158e-13   3.958e-13   -12.381   -12.403    -0.021     (0)  
   ZnSO4           1.130e-14   1.130e-14   -13.947   -13.947     0.000     (0)  
   ZnCl+           5.678e-16   5.404e-16   -15.246   -15.267    -0.021     (0)  
   ZnOHCl          6.645e-17   6.649e-17   -16.177   -16.177     0.000     (0)  
   Zn(OH)3-        1.565e-17   1.490e-17   -16.805   -16.827    -0.021     (0)  
   Zn(SO4)2-2      1.442e-20   1.183e-20   -19.841   -19.927    -0.086     (0)  
   ZnCl2           3.034e-22   3.036e-22   -21.518   -21.518     0.000     (0)  
   Zn(OH)4-2       2.877e-23   2.361e-23   -22.541   -22.627    -0.086     (0)  
   ZnCl3-          1.919e-28   1.827e-28   -27.717   -27.738    -0.021     (0)  
   ZnCl4-2         5.969e-35   4.911e-35   -34.224   -34.309    -0.085     (0)  

------------------------------Saturation indices-------------------------------

  Phase               SI** log IAP   log K(298 K,   1 atm)

  Adularia         -0.96    -21.54  -20.57  KAlSi3O8
  Al(OH)3(a)       -2.60      8.20   10.80  Al(OH)3
  Albite           -6.12    -24.12  -18.00  NaAlSi3O8
  AlumK           -25.17    -30.34   -5.17  KAl(SO4)2:12H2O
  Alunite         -12.55    -13.95   -1.40  KAl3(SO4)2(OH)6
  Analcime         -7.98    -20.68  -12.70  NaAlSi2O6:H2O
  Anhydrite        -6.86    -11.22   -4.36  CaSO4
  Anorthite        -6.42    -26.14  -19.71  CaAl2Si2O8
  BaF2             -6.76    -12.52   -5.76  BaF2
  Barite           -1.19    -11.16   -9.97  BaSO4
  Basaluminite    -10.81     11.89   22.70  Al4(OH)10SO4
  Beidellite       -0.11    -45.38  -45.27  (NaKMg0.5)0.11Al2.33Si3.67O10(OH)2
  Bianchite       -14.55    -16.32   -1.76  ZnSO4:6H2O
  Birnessite      -11.31     32.29   43.60  MnO2
  Bixbyite         -7.83     -8.44   -0.61  Mn2O3
  Boehmite         -0.39      8.20    8.58  AlOOH
  Brucite          -7.46      9.38   16.84  Mg(OH)2
  Bunsenite        -5.00      7.45   12.45  NiO
  Chalcedony        0.11     -3.44   -3.55  SiO2
  Chlorite14A     -15.40     52.98   68.38  Mg5Al2Si3O10(OH)8
  Chlorite7A      -18.77     52.98   71.75  Mg5Al2Si3O10(OH)8
  Chrysotile      -10.94     21.27   32.20  Mg3Si2O5(OH)4
  Clinoenstatite   -5.40      5.94   11.34  MgSiO3
  Cristobalite      0.15     -3.44   -3.59  SiO2
  Diaspore          1.32      8.20    6.88  AlOOH
  Diopside         -7.71     12.18   19.89  CaMgSi2O6
  Epsomite         -9.37    -11.51   -2.14  MgSO4:7H2O
  Fluorite         -1.98    -12.58  -10.60  CaF2
  Forsterite      -12.98     15.32   28.31  Mg2SiO4
  Gibbsite          0.09      8.20    8.11  Al(OH)3
  Goslarite       -14.36    -16.32   -1.96  ZnSO4:7H2O
  Gypsum           -6.64    -11.22   -4.58  CaSO4:2H2O
  H2(g)           -22.00    -25.15   -3.15  H2
  H2O(g)           -1.51     -0.00    1.51  H2O
  Halite          -14.19    -12.61    1.58  NaCl
  Halloysite       -2.98      9.52   12.50  Al2Si2O5(OH)4
  Hausmannite      -8.16     52.87   61.03  Mn3O4
  Illite           -0.75    -41.02  -40.27  K0.6Mg0.25Al2.3Si3.5O10(OH)2
  Jurbanite        -9.46    -12.69   -3.23  AlOHSO4
  Kaolinite         2.08      9.52    7.43  Al2Si2O5(OH)4
  Kmica             4.82     17.52   12.70  KAl3Si3O10(OH)2
  Laumontite       -2.05    -33.01  -30.96  CaAl2Si4O12:4H2O
  Leonhardite       3.73    -66.02  -69.76  Ca2Al4Si8O24:7H2O
  Magadiite        -9.10    -23.40  -14.30  NaSi7O13(OH)3:3H2O
  Manganite        -4.05     21.29   25.34  MnOOH
  Mirabilite      -18.46    -19.57   -1.11  Na2SO4:10H2O
  Mn2(SO4)3       -65.40    -71.11   -5.71  Mn2(SO4)3
  MnCl2:4H2O      -18.96    -16.25    2.71  MnCl2:4H2O
  MnSO4           -13.27    -10.60    2.67  MnSO4
  Montmorillonite-Ca   0.30    -44.73  -45.03  Ca0.165Al2.33Si3.67O10(OH)2
  Morenosite      -11.08    -13.44   -2.36  NiSO4:7H2O
  Ni(OH)2          -3.35      7.45   10.80  Ni(OH)2
  Ni2SiO4          -3.09     11.45   14.54  Ni2SiO4
  Ni4(OH)6SO4     -23.11      8.89   32.00  Ni4(OH)6SO4
  Nsutite         -10.27     32.29   42.56  MnO2
  O2(g)           -39.19    -42.08   -2.89  O2
  Phillipsite      -2.95    -22.83  -19.87  Na0.5K0.5AlSi3O8:H2O
  Phlogopite      -14.03     29.27   43.30  KMg3AlSi3O10(OH)2
  Portlandite     -13.13      9.67   22.80  Ca(OH)2
  Prehnite         -8.21    -19.90  -11.70  Ca2Al2Si3O10(OH)2
  Pyrochroite      -4.91     10.29   15.20  Mn(OH)2
  Pyrolusite       -9.09     32.29   41.38  MnO2
  Pyrophyllite      5.63    -42.69  -48.31  Al2Si4O10(OH)2
  Quartz            0.54     -3.44   -3.98  SiO2
  Retgersite      -11.40    -13.44   -2.04  NiSO4:6H2O
  Sepiolite        -7.31      8.45   15.76  Mg2Si3O7.5OH:3H2O
  Sepiolite(d)    -10.21      8.45   18.66  Mg2Si3O7.5OH:3H2O
  Silicagel        -0.42     -3.44   -3.02  SiO2
  SiO2(a)          -0.72     -3.44   -2.71  SiO2
  Talc             -7.01     14.39   21.40  Mg3Si4O10(OH)2
  Thenardite      -19.39    -19.57   -0.18  Na2SO4
  Tremolite       -17.82     38.75   56.57  Ca2Mg5Si8O22(OH)2
  Wairakite        -6.30    -33.01  -26.71  CaAl2Si4O12:2H2O
  Willemite        -9.62      5.71   15.33  Zn2SiO4
  Zincite(c)       -6.57      4.57   11.14  ZnO
  Zincosite       -19.33    -16.32    3.01  ZnSO4
  Zn(NO3)2:6H2O   -18.24    -14.80    3.44  Zn(NO3)2:6H2O
  Zn(OH)2-a        -7.88      4.57   12.45  Zn(OH)2
  Zn(OH)2-b        -7.18      4.57   11.75  Zn(OH)2
  Zn(OH)2-c        -7.63      4.57   12.20  Zn(OH)2
  Zn(OH)2-e        -6.93      4.57   11.50  Zn(OH)2
  Zn(OH)2-g        -7.14      4.57   11.71  Zn(OH)2
  Zn2(OH)2SO4     -19.24    -11.74    7.50  Zn2(OH)2SO4
  Zn2(OH)3Cl      -19.32     -4.12   15.20  Zn2(OH)3Cl
  Zn3O(SO4)2      -47.08    -28.06   19.02  ZnO:2ZnSO4
  Zn4(OH)6SO4     -31.00     -2.60   28.40  Zn4(OH)6SO4
  Zn5(OH)8Cl2     -42.17     -3.67   38.50  Zn5(OH)8Cl2
  ZnCl2           -29.00    -21.97    7.03  ZnCl2
  ZnF2            -16.16    -17.68   -1.52  ZnF2
  ZnMetal         -43.18    -17.43   25.76  Zn
  ZnO(a)           -6.74      4.57   11.31  ZnO
  ZnSiO3           -1.79      1.14    2.93  ZnSiO3
  ZnSO4:H2O       -15.75    -16.32   -0.57  ZnSO4:H2O

**For a gas, SI = log10(fugacity). Fugacity = pressure * phi / 1 atm.
  For ideal gases, phi = 1.

Initial solution 3.	 test3 

-----------------------------Solution composition------------------------------

	Elements           Molality       Moles

	Al                2.966e-06   2.966e-06
	Alkalinity        3.451e-03   3.451e-03
	Ca                5.491e-04   5.491e-04
	Cl                2.539e-04   2.539e-04
	Fe                4.836e-06   4.836e-06
	K                 4.605e-05   4.605e-05
	Mg                1.687e-04   1.687e-04
	Mn                2.003e-06   2.003e-06
	N(-3)             1.928e-05   1.928e-05
	N(3)              1.500e-05   1.500e-05
	N(5)              1.578e-04   1.578e-04
	Na                2.393e-03   2.393e-03
	P                 1.689e-04   1.689e-04
	S(6)              1.013e-04   1.013e-04

----------------------------Description of solution----------------------------

                                       pH  =   7.000    
                                       pe  =   4.000    
                        Activity of water  =   1.000
                 Ionic strength (mol/kgw)  =   4.835e-03
                       Mass of water (kg)  =   1.000e+00
                    Total carbon (mol/kg)  =   4.048e-03
                       Total CO2 (mol/kg)  =   4.048e-03
                         Temperature (°C)  =  25.00
                  Electrical balance (eq)  =  -3.338e-04
 Percent error, 100*(Cat-|An|)/(Cat+|An|)  =  -4.18
                               Iterations  =  10
                                  Total H  = 1.110161e+02
                                  Total O  = 5.551926e+01

---------------------------------Redox couples---------------------------------

	Redox couple             pe  Eh (volts)

	N(-3)/N(3)           5.7334      0.3392
	N(-3)/N(5)           6.2490      0.3697
	N(3)/N(5)            7.7957      0.4612

----------------------------Distribution of species----------------------------

                                               Log       Log       Log    mole V
   Species          Molality    Activity  Molality  Activity     Gamma   cm³/mol

   OH-             1.080e-07   1.001e-07    -6.967    -7.000    -0.033     (0)  
   H+              1.070e-07   1.000e-07    -6.971    -7.000    -0.029      0.00
   H2O             5.551e+01   9.999e-01     1.744    -0.000     0.000     18.07
Al            2.966e-06
   Al(OH)4-        2.732e-06   2.537e-06    -5.564    -5.596    -0.032     (0)  
   Al(OH)3         1.345e-07   1.346e-07    -6.871    -6.871     0.000     (0)  
   Al(OH)2+        9.826e-08   9.137e-08    -7.008    -7.039    -0.032     (0)  
   AlOH+2          1.559e-09   1.166e-09    -8.807    -8.933    -0.126     (0)  
   Al+3            2.160e-11   1.174e-11   -10.666   -10.930    -0.265     (0)  
   AlSO4+          2.777e-12   2.579e-12   -11.556   -11.589    -0.032     (0)  
   Al(SO4)2-       6.100e-15   5.664e-15   -14.215   -14.247    -0.032     (0)  
   AlHSO4+2        3.082e-20   2.287e-20   -19.511   -19.641    -0.130     (0)  
C(4)          4.048e-03
   HCO3-           3.324e-03   3.091e-03    -2.478    -2.510    -0.032     (0)  
   CO2             6.943e-04   6.951e-04    -3.158    -3.158     0.000     (0)  
   CaHCO3+         1.630e-05   1.517e-05    -4.788    -4.819    -0.031     (0)  
   MgHCO3+         4.596e-06   4.265e-06    -5.338    -5.370    -0.032     (0)  
   NaHCO3          3.851e-06   3.855e-06    -5.414    -5.414     0.000     (0)  
   CO3-2           1.939e-06   1.450e-06    -5.712    -5.839    -0.126     (0)  
   CaCO3           9.336e-07   9.346e-07    -6.030    -6.029     0.000     (0)  
   FeHCO3+         6.599e-07   6.124e-07    -6.181    -6.213    -0.032     (0)  
   MnHCO3+         3.378e-07   3.139e-07    -6.471    -6.503    -0.032     (0)  
   MgCO3           1.629e-07   1.631e-07    -6.788    -6.788     0.000     (0)  
   MnCO3           1.311e-07   1.312e-07    -6.883    -6.882     0.000     (0)  
   FeCO3           6.882e-08   6.890e-08    -7.162    -7.162     0.000     (0)  
   NaCO3-          6.438e-08   5.987e-08    -7.191    -7.223    -0.032     (0)  
Ca            5.491e-04
   Ca+2            5.150e-04   3.848e-04    -3.288    -3.415    -0.127     (0)  
   CaHCO3+         1.630e-05   1.517e-05    -4.788    -4.819    -0.031     (0)  
   CaHPO4          1.042e-05   1.043e-05    -4.982    -4.982     0.000     (0)  
   CaSO4           5.328e-06   5.334e-06    -5.273    -5.273     0.000     (0)  
   CaCO3           9.336e-07   9.346e-07    -6.030    -6.029     0.000     (0)  
   CaH2PO4+        8.432e-07   7.841e-07    -6.074    -6.106    -0.032     (0)  
   CaPO4-          2.654e-07   2.468e-07    -6.576    -6.608    -0.032     (0)  
   CaOH+           6.861e-10   6.386e-10    -9.164    -9.195    -0.031     (0)  
   CaHSO4+         3.367e-12   3.125e-12   -11.473   -11.505    -0.032     (0)  
Cl            2.539e-04
   Cl-             2.539e-04   2.355e-04    -3.595    -3.628    -0.033     (0)  
   MnCl+           1.176e-09   1.093e-09    -8.930    -8.961    -0.032     (0)  
   FeCl+           6.930e-10   6.440e-10    -9.159    -9.191    -0.032     (0)  
   MnCl2           1.122e-13   1.124e-13   -12.950   -12.949     0.000     (0)  
   FeCl+2          1.804e-17   1.346e-17   -16.744   -16.871    -0.127     (0)  
   MnCl3-          7.841e-18   7.287e-18   -17.106   -17.137    -0.032     (0)  
   FeCl2+          1.525e-20   1.415e-20   -19.817   -19.849    -0.032     (0)  
   FeCl3           3.329e-25   3.333e-25   -24.478   -24.477     0.000     (0)  
Fe(2)         3.876e-06
   Fe+2            2.641e-06   1.981e-06    -5.578    -5.703    -0.125     (0)  
   FeHCO3+         6.599e-07   6.124e-07    -6.181    -6.213    -0.032     (0)  
   FeHPO4          3.895e-07   3.900e-07    -6.409    -6.409     0.000     (0)  
   FeH2PO4+        8.503e-08   7.907e-08    -7.070    -7.102    -0.032     (0)  
   FeCO3           6.882e-08   6.890e-08    -7.162    -7.162     0.000     (0)  
   FeSO4           2.445e-08   2.447e-08    -7.612    -7.611     0.000     (0)  
   FeOH+           6.741e-09   6.264e-09    -8.171    -8.203    -0.032     (0)  
   FeCl+           6.930e-10   6.440e-10    -9.159    -9.191    -0.032     (0)  
   Fe(OH)2         5.325e-13   5.331e-13   -12.274   -12.273     0.000     (0)  
   FeHSO4+         1.733e-14   1.609e-14   -13.761   -13.794    -0.032     (0)  
   Fe(OH)3-        2.131e-16   1.980e-16   -15.671   -15.703    -0.032     (0)  
Fe(3)         9.605e-07
   Fe(OH)3         5.203e-07   5.209e-07    -6.284    -6.283     0.000     (0)  
   Fe(OH)2+        4.349e-07   4.044e-07    -6.362    -6.393    -0.032     (0)  
   Fe(OH)4-        5.108e-09   4.750e-09    -8.292    -8.323    -0.032     (0)  
   FeOH+2          1.638e-10   1.221e-10    -9.786    -9.913    -0.127     (0)  
   FeH2PO4+2       5.424e-14   4.055e-14   -13.266   -13.392    -0.126     (0)  
   FeHPO4+         2.707e-14   2.518e-14   -13.567   -13.599    -0.032     (0)  
   Fe+3            3.481e-15   1.892e-15   -14.458   -14.723    -0.265     (0)  
   FeSO4+          1.551e-15   1.441e-15   -14.809   -14.841    -0.032     (0)  
   FeCl+2          1.804e-17   1.346e-17   -16.744   -16.871    -0.127     (0)  
   Fe(SO4)2-       2.360e-18   2.190e-18   -17.627   -17.660    -0.032     (0)  
   Fe2(OH)2+4      1.326e-18   4.016e-19   -17.878   -18.396    -0.519     (0)  
   FeCl2+          1.525e-20   1.415e-20   -19.817   -19.849    -0.032     (0)  
   FeHSO4+2        5.202e-22   3.859e-22   -21.284   -21.414    -0.130     (0)  
   Fe3(OH)4+5      2.193e-22   3.393e-23   -21.659   -22.469    -0.810     (0)  
   FeCl3           3.329e-25   3.333e-25   -24.478   -24.477     0.000     (0)  
H(0)          1.414e-25
   H2              7.072e-26   7.079e-26   -25.150   -25.150     0.000     (0)  
K             4.605e-05
   K+              4.602e-05   4.268e-05    -4.337    -4.370    -0.033     (0)  
   KSO4-           2.240e-08   2.083e-08    -7.650    -7.681    -0.032     (0)  
   KHPO4-          4.424e-09   4.114e-09    -8.354    -8.386    -0.032     (0)  
Mg            1.687e-04
   Mg+2            1.573e-04   1.179e-04    -3.803    -3.928    -0.125     (0)  
   MgHCO3+         4.596e-06   4.265e-06    -5.338    -5.370    -0.032     (0)  
   MgHPO4          4.317e-06   4.321e-06    -5.365    -5.364     0.000     (0)  
   MgSO4           1.918e-06   1.920e-06    -5.717    -5.717     0.000     (0)  
   MgH2PO4+        3.290e-07   3.059e-07    -6.483    -6.514    -0.032     (0)  
   MgCO3           1.629e-07   1.631e-07    -6.788    -6.788     0.000     (0)  
   MgPO4-          1.097e-07   1.020e-07    -6.960    -6.991    -0.032     (0)  
   MgOH+           4.596e-09   4.281e-09    -8.338    -8.368    -0.031     (0)  
Mn(2)         2.003e-06
   Mn+2            1.519e-06   1.139e-06    -5.819    -5.943    -0.125     (0)  
   MnHCO3+         3.378e-07   3.139e-07    -6.471    -6.503    -0.032     (0)  
   MnCO3           1.311e-07   1.312e-07    -6.883    -6.882     0.000     (0)  
   MnSO4           1.406e-08   1.407e-08    -7.852    -7.852     0.000     (0)  
   MnCl+           1.176e-09   1.093e-09    -8.930    -8.961    -0.032     (0)  
   MnOH+           3.151e-10   2.928e-10    -9.502    -9.533    -0.032     (0)  
   MnCl2           1.122e-13   1.124e-13   -12.950   -12.949     0.000     (0)  
   Mn(NO3)2        9.687e-14   9.698e-14   -13.014   -13.013     0.000     (0)  
   MnCl3-          7.841e-18   7.287e-18   -17.106   -17.137    -0.032     (0)  
   Mn(OH)3-        1.942e-20   1.805e-20   -19.712   -19.744    -0.032     (0)  
Mn(3)         6.478e-28
   Mn+3            6.478e-28   3.521e-28   -27.189   -27.453    -0.265     (0)  
Mn(6)         0.000e+00
   MnO4-2          0.000e+00   0.000e+00   -52.256   -52.384    -0.127     (0)  
Mn(7)         0.000e+00
   MnO4-           0.000e+00   0.000e+00   -57.734   -57.768    -0.033     (0)  
N(-3)         1.928e-05
   NH4+            1.916e-05   1.779e-05    -4.718    -4.750    -0.032     (0)  
   NH3             1.014e-07   1.014e-07    -6.994    -6.994     0.000     (0)  
   NH4SO4-         1.713e-08   1.592e-08    -7.766    -7.798    -0.032     (0)  
N(3)          1.500e-05
   NO2-            1.500e-05   1.392e-05    -4.824    -4.856    -0.032     (0)  
N(5)          1.578e-04
   NO3-            1.578e-04   1.462e-04    -3.802    -3.835    -0.033     (0)  
   Mn(NO3)2        9.687e-14   9.698e-14   -13.014   -13.013     0.000     (0)  
Na            2.393e-03
   Na+             2.388e-03   2.218e-03    -2.622    -2.654    -0.032     (0)  
   NaHCO3          3.851e-06   3.855e-06    -5.414    -5.414     0.000     (0)  
   NaSO4-          8.303e-07   7.721e-07    -6.081    -6.112    -0.032     (0)  
   NaHPO4-         2.299e-07   2.138e-07    -6.638    -6.670    -0.032     (0)  
   NaCO3-          6.438e-08   5.987e-08    -7.191    -7.223    -0.032     (0)  
O(0)          0.000e+00
   O2              0.000e+00   0.000e+00   -42.081   -42.080     0.000     (0)  
P             1.689e-04
   H2PO4-          8.563e-05   7.963e-05    -4.067    -4.099    -0.032     (0)  
   HPO4-2          6.628e-05   4.944e-05    -4.179    -4.306    -0.127     (0)  
   CaHPO4          1.042e-05   1.043e-05    -4.982    -4.982     0.000     (0)  
   MgHPO4          4.317e-06   4.321e-06    -5.365    -5.364     0.000     (0)  
   CaH2PO4+        8.432e-07   7.841e-07    -6.074    -6.106    -0.032     (0)  
   FeHPO4          3.895e-07   3.900e-07    -6.409    -6.409     0.000     (0)  
   MgH2PO4+        3.290e-07   3.059e-07    -6.483    -6.514    -0.032     (0)  
   CaPO4-          2.654e-07   2.468e-07    -6.576    -6.608    -0.032     (0)  
   NaHPO4-         2.299e-07   2.138e-07    -6.638    -6.670    -0.032     (0)  
   MgPO4-          1.097e-07   1.020e-07    -6.960    -6.991    -0.032     (0)  
   FeH2PO4+        8.503e-08   7.907e-08    -7.070    -7.102    -0.032     (0)  
   KHPO4-          4.424e-09   4.114e-09    -8.354    -8.386    -0.032     (0)  
   PO4-3           4.310e-10   2.229e-10    -9.365    -9.652    -0.286     (0)  
   FeH2PO4+2       5.424e-14   4.055e-14   -13.266   -13.392    -0.126     (0)  
   FeHPO4+         2.707e-14   2.518e-14   -13.567   -13.599    -0.032     (0)  
S(6)          1.013e-04
   SO4-2           9.317e-05   6.946e-05    -4.031    -4.158    -0.128     (0)  
   CaSO4           5.328e-06   5.334e-06    -5.273    -5.273     0.000     (0)  
   MgSO4           1.918e-06   1.920e-06    -5.717    -5.717     0.000     (0)  
   NaSO4-          8.303e-07   7.721e-07    -6.081    -6.112    -0.032     (0)  
   FeSO4           2.445e-08   2.447e-08    -7.612    -7.611     0.000     (0)  
   KSO4-           2.240e-08   2.083e-08    -7.650    -7.681    -0.032     (0)  
   NH4SO4-         1.713e-08   1.592e-08    -7.766    -7.798    -0.032     (0)  
   MnSO4           1.406e-08   1.407e-08    -7.852    -7.852     0.000     (0)  
   HSO4-           7.273e-10   6.754e-10    -9.138    -9.170    -0.032     (0)  
   CaHSO4+         3.367e-12   3.125e-12   -11.473   -11.505    -0.032     (0)  
   AlSO4+          2.777e-12   2.579e-12   -11.556   -11.589    -0.032     (0)  
   FeHSO4+         1.733e-14   1.609e-14   -13.761   -13.794    -0.032     (0)  
   Al(SO4)2-       6.100e-15   5.664e-15   -14.215   -14.247    -0.032     (0)  
   FeSO4+          1.551e-15   1.441e-15   -14.809   -14.841    -0.032     (0)  
   Fe(SO4)2-       2.360e-18   2.190e-18   -17.627   -17.660    -0.032     (0)  
   AlHSO4+2        3.082e-20   2.287e-20   -19.511   -19.641    -0.130     (0)  
   FeHSO4+2        5.202e-22   3.859e-22   -21.284   -21.414    -0.130     (0)  

------------------------------Saturation indices-------------------------------

  Phase               SI** log IAP   log K(298 K,   1 atm)

  Al(OH)3(a)       -0.73     10.07   10.80  Al(OH)3
  AlumK           -18.45    -23.62   -5.17  KAl(SO4)2:12H2O
  Alunite          -2.08     -3.48   -1.40  KAl3(SO4)2(OH)6
  Anhydrite        -3.21     -7.57   -4.36  CaSO4
  Aragonite        -0.92     -9.25   -8.34  CaCO3
  Artinite         -9.30      0.30    9.60  MgCO3:Mg(OH)2:3H2O
  Basaluminite     -0.58     22.12   22.70  Al4(OH)10SO4
  Birnessite      -13.54     30.06   43.60  MnO2
  Bixbyite        -12.30    -12.91   -0.61  Mn2O3
  Boehmite          1.49     10.07    8.58  AlOOH
  Brucite          -6.77     10.07   16.84  Mg(OH)2
  Calcite          -0.77     -9.25   -8.48  CaCO3
  CO2(g)           -1.69     -3.16   -1.47  CO2
  Diaspore          3.19     10.07    6.88  AlOOH
  Dolomite         -1.93    -19.02  -17.09  CaMg(CO3)2
  Dolomite(d)      -2.48    -19.02  -16.54  CaMg(CO3)2
  Epsomite         -5.95     -8.09   -2.14  MgSO4:7H2O
  Fe(OH)2.7Cl.3     6.13      3.09   -3.04  Fe(OH)2.7Cl0.3
  Fe(OH)3(a)        1.39      6.28    4.89  Fe(OH)3
  Fe3(OH)8          0.63     20.85   20.22  Fe3(OH)8
  Gibbsite          1.96     10.07    8.11  Al(OH)3
  Goethite          7.28      6.28   -1.00  FeOOH
  Gypsum           -2.99     -7.57   -4.58  CaSO4:2H2O
  H2(g)           -22.00    -25.15   -3.15  H2
  H2O(g)           -1.51     -0.00    1.51  H2O
  Halite           -7.86     -6.28    1.58  NaCl
  Hausmannite     -14.86     46.17   61.03  Mn3O4
  Hematite         16.56     12.55   -4.01  Fe2O3
  Huntite          -8.59    -38.55  -29.97  CaMg3(CO3)4
  Hydromagnesite  -20.24    -29.00   -8.76  Mg5(CO3)4(OH)2:4H2O
  Hydroxyapatite    1.43     -1.99   -3.42  Ca5(PO4)3OH
  Jarosite(ss)     -5.50    -15.33   -9.83  (K0.77Na0.03H0.2)Fe3(SO4)2(OH)6
  Jarosite-K       -5.65    -14.86   -9.21  KFe3(SO4)2(OH)6
  Jarosite-Na      -7.86    -13.14   -5.28  NaFe3(SO4)2(OH)6
  JarositeH       -12.10    -17.49   -5.39  (H3O)Fe3(SO4)2(OH)6
  Jurbanite        -4.86     -8.09   -3.23  AlOHSO4
  Maghemite         6.17     12.55    6.39  Fe2O3
  Magnesite        -1.74     -9.77   -8.03  MgCO3
  Magnetite        17.11     20.85    3.74  Fe3O4
  Manganite        -6.28     19.06   25.34  MnOOH
  Melanterite      -7.65     -9.86   -2.21  FeSO4:7H2O
  Mirabilite       -8.35     -9.47   -1.11  Na2SO4:10H2O
  Mn2(SO4)3       -61.67    -67.38   -5.71  Mn2(SO4)3
  Mn3(PO4)2       -13.31    -37.13  -23.83  Mn3(PO4)2
  MnCl2:4H2O      -15.91    -13.20    2.71  MnCl2:4H2O
  MnHPO4            2.70    -10.25  -12.95  MnHPO4
  MnSO4           -12.77    -10.10    2.67  MnSO4
  Nahcolite        -4.62     -5.16   -0.55  NaHCO3
  Natron           -9.84    -11.15   -1.31  Na2CO3:10H2O
  Nesquehonite     -4.15     -9.77   -5.62  MgCO3:3H2O
  NH3(g)           -8.76     -6.99    1.77  NH3
  Nsutite         -12.51     30.06   42.56  MnO2
  O2(g)           -39.19    -42.08   -2.89  O2
  Portlandite     -12.21     10.59   22.80  Ca(OH)2
  Pyrochroite      -7.14      8.06   15.20  Mn(OH)2
  Pyrolusite      -11.32     30.06   41.38  MnO2
  Rhodochrosite    -0.65    -11.78  -11.13  MnCO3
  Rhodochrosite(d)  -1.39    -11.78  -10.39  MnCO3
  Siderite         -0.65    -11.54  -10.89  FeCO3
  Siderite(d)(3)   -1.09    -11.54  -10.45  FeCO3
  Strengite         2.02    -24.38  -26.40  FePO4:2H2O
  Thenardite       -9.29     -9.47   -0.18  Na2SO4
  Thermonatrite   -11.27    -11.15    0.13  Na2CO3:H2O
  Trona           -15.52    -16.31   -0.80  NaHCO3:Na2CO3:2H2O
  Vivianite        -0.41    -36.41  -36.00  Fe3(PO4)2:8H2O

**For a gas, SI = log10(fugacity). Fugacity = pressure * phi / 1 atm.
  For ideal gases, phi = 1.

Initial solution 4.	 test4 

-----------------------------Solution composition------------------------------

	Elements           Molality       Moles

	Al                7.431e-08   7.431e-08
	Alkalinity        1.201e-02   1.201e-02
	Ca                4.152e-03   4.152e-03
	Cl                3.094e-02   3.094e-02
	Fe                7.001e-05   7.001e-05
	K                 1.343e-03   1.343e-03
	Mg                5.361e-03   5.361e-03
	Mn                7.299e-06   7.299e-06
	N(-3)             1.099e-03   1.099e-03
	N(3)              7.157e-07   7.157e-07
	N(5)              1.575e-05   1.575e-05
	Na                1.374e-02   1.374e-02
	Ni                2.049e-08   2.049e-08
	P                 2.460e-05   2.460e-05
	S(6)              3.861e-05   3.861e-05
	Zn                1.687e-08   1.687e-08

----------------------------Description of solution----------------------------

                                       pH  =   7.000    
                                       pe  =   4.000    
                        Activity of water  =   0.999
                 Ionic strength (mol/kgw)  =   4.738e-02
                       Mass of water (kg)  =   1.000e+00
                    Total carbon (mol/kg)  =   1.403e-02
                       Total CO2 (mol/kg)  =   1.403e-02
                         Temperature (°C)  =  25.00
                  Electrical balance (eq)  =  -7.714e-03
 Percent error, 100*(Cat-|An|)/(Cat+|An|)  = -10.04
                               Iterations  =  11
                                  Total H  = 1.110288e+02
                                  Total O  = 5.554654e+01

---------------------------------Redox couples---------------------------------

	Redox couple             pe  Eh (volts)

	N(-3)/N(3)           5.2207      0.3088
	N(-3)/N(5)           5.9037      0.3492
	N(3)/N(5)            7.9527      0.4705

----------------------------Distribution of species----------------------------

                                               Log       Log       Log    mole V
   Species          Molality    Activity  Molality  Activity     Gamma   cm³/mol

   OH-             1.227e-07   9.999e-08    -6.911    -7.000    -0.089     (0)  
   H+              1.168e-07   1.000e-07    -6.932    -7.000    -0.068      0.00
   H2O             5.551e+01   9.988e-01     1.744    -0.001     0.000     18.07
Al            7.431e-08
   Al(OH)4-        6.881e-08   5.671e-08    -7.162    -7.246    -0.084     (0)  
   Al(OH)3         2.980e-09   3.013e-09    -8.526    -8.521     0.005     (0)  
   Al(OH)2+        2.462e-09   2.047e-09    -8.609    -8.689    -0.080     (0)  
   AlOH+2          5.468e-11   2.615e-11   -10.262   -10.583    -0.320     (0)  
   Al+3            1.069e-12   2.636e-13   -11.971   -12.579    -0.608     (0)  
   AlSO4+          1.234e-14   1.017e-14   -13.909   -13.993    -0.084     (0)  
   Al(SO4)2-       4.764e-18   3.926e-18   -17.322   -17.406    -0.084     (0)  
   AlHSO4+2        1.954e-22   9.020e-23   -21.709   -22.045    -0.336     (0)  
C(4)          1.403e-02
   HCO3-           1.124e-02   9.344e-03    -1.949    -2.029    -0.080     (0)  
   CO2             2.080e-03   2.103e-03    -2.682    -2.677     0.005     (0)  
   MgHCO3+         3.278e-04   2.687e-04    -3.484    -3.571    -0.086     (0)  
   CaHCO3+         2.642e-04   2.209e-04    -3.578    -3.656    -0.078     (0)  
   NaHCO3          5.874e-05   5.939e-05    -4.231    -4.226     0.005     (0)  
   FeHCO3+         2.059e-05   1.697e-05    -4.686    -4.770    -0.084     (0)  
   CaCO3           1.346e-05   1.361e-05    -4.871    -4.866     0.005     (0)  
   MgCO3           1.016e-05   1.028e-05    -4.993    -4.988     0.005     (0)  
   CO3-2           9.163e-06   4.382e-06    -5.038    -5.358    -0.320     (0)  
   MnHCO3+         2.083e-06   1.726e-06    -5.681    -5.763    -0.082     (0)  
   FeCO3           1.888e-06   1.909e-06    -5.724    -5.719     0.005     (0)  
   NaCO3-          1.109e-06   9.222e-07    -5.955    -6.035    -0.080     (0)  
   MnCO3           7.134e-07   7.212e-07    -6.147    -6.142     0.005     (0)  
   NiCO3           1.805e-08   1.824e-08    -7.744    -7.739     0.005     (0)  
   ZnHCO3+         5.205e-09   4.291e-09    -8.284    -8.367    -0.084     (0)  
   ZnCO3           3.154e-09   3.189e-09    -8.501    -8.496     0.005     (0)  
   NiHCO3+         8.788e-10   7.244e-10    -9.056    -9.140    -0.084     (0)  
   Zn(CO3)2-2      6.472e-10   2.988e-10    -9.189    -9.525    -0.336     (0)  
   Ni(CO3)2-2      3.009e-10   1.389e-10    -9.522    -9.857    -0.336     (0)  
Ca            4.152e-03
   Ca+2            3.866e-03   1.853e-03    -2.413    -2.732    -0.319     (0)  
   CaHCO3+         2.642e-04   2.209e-04    -3.578    -3.656    -0.078     (0)  
   CaCO3           1.346e-05   1.361e-05    -4.871    -4.866     0.005     (0)  
   CaSO4           4.465e-06   4.514e-06    -5.350    -5.345     0.005     (0)  
   CaHPO4          3.381e-06   3.418e-06    -5.471    -5.466     0.005     (0)  
   CaH2PO4+        3.089e-07   2.569e-07    -6.510    -6.590    -0.080     (0)  
   CaPO4-          9.724e-08   8.087e-08    -7.012    -7.092    -0.080     (0)  
   CaOH+           3.674e-09   3.072e-09    -8.435    -8.513    -0.078     (0)  
   CaHSO4+         3.208e-12   2.644e-12   -11.494   -11.578    -0.084     (0)  
Cl            3.094e-02
   Cl-             3.093e-02   2.526e-02    -1.510    -1.598    -0.088     (0)  
   FeCl+           7.644e-07   6.332e-07    -6.117    -6.198    -0.082     (0)  
   MnCl+           2.574e-07   2.132e-07    -6.589    -6.671    -0.082     (0)  
   MnCl2           2.325e-09   2.350e-09    -8.634    -8.629     0.005     (0)  
   ZnCl+           3.025e-10   2.479e-10    -9.519    -9.606    -0.086     (0)  
   NiCl+           4.323e-11   3.563e-11   -10.364   -10.448    -0.084     (0)  
   ZnOHCl          3.014e-11   3.047e-11   -10.521   -10.516     0.005     (0)  
   MnCl3-          1.974e-11   1.635e-11   -10.705   -10.787    -0.082     (0)  
   ZnCl2           6.486e-12   6.557e-12   -11.188   -11.183     0.005     (0)  
   NiCl2           3.232e-12   3.267e-12   -11.491   -11.486     0.005     (0)  
   ZnCl3-          2.267e-13   1.858e-13   -12.645   -12.731    -0.086     (0)  
   FeCl+2          2.810e-14   1.323e-14   -13.551   -13.878    -0.327     (0)  
   ZnCl4-2         4.995e-15   2.352e-15   -14.301   -14.629    -0.327     (0)  
   FeCl2+          1.811e-15   1.492e-15   -14.742   -14.826    -0.084     (0)  
   FeCl3           3.728e-18   3.769e-18   -17.428   -17.424     0.005     (0)  
Fe(2)         6.080e-05
   Fe+2            3.715e-05   1.816e-05    -4.430    -4.741    -0.311     (0)  
   FeHCO3+         2.059e-05   1.697e-05    -4.686    -4.770    -0.084     (0)  
   FeCO3           1.888e-06   1.909e-06    -5.724    -5.719     0.005     (0)  
   FeCl+           7.644e-07   6.332e-07    -6.117    -6.198    -0.082     (0)  
   FeHPO4          2.406e-07   2.432e-07    -6.619    -6.614     0.005     (0)  
   FeOH+           6.925e-08   5.737e-08    -7.160    -7.241    -0.082     (0)  
   FeH2PO4+        5.930e-08   4.931e-08    -7.227    -7.307    -0.080     (0)  
   FeSO4           3.899e-08   3.942e-08    -7.409    -7.404     0.005     (0)  
   Fe(OH)2         4.824e-12   4.877e-12   -11.317   -11.312     0.005     (0)  
   FeHSO4+         3.144e-14   2.591e-14   -13.503   -13.587    -0.084     (0)  
   Fe(OH)3-        2.185e-15   1.810e-15   -14.661   -14.742    -0.082     (0)  
Fe(3)         9.212e-06
   Fe(OH)3         4.709e-06   4.760e-06    -5.327    -5.322     0.005     (0)  
   Fe(OH)2+        4.449e-06   3.700e-06    -5.352    -5.432    -0.080     (0)  
   Fe(OH)4-        5.214e-08   4.336e-08    -7.283    -7.363    -0.080     (0)  
   FeOH+2          2.376e-09   1.119e-09    -8.624    -8.951    -0.327     (0)  
   Fe+3            7.033e-14   1.735e-14   -13.153   -13.761    -0.608     (0)  
   FeH2PO4+2       5.289e-14   2.529e-14   -13.277   -13.597    -0.320     (0)  
   FeCl+2          2.810e-14   1.323e-14   -13.551   -13.878    -0.327     (0)  
   FeHPO4+         1.886e-14   1.570e-14   -13.724   -13.804    -0.080     (0)  
   FeSO4+          2.802e-15   2.321e-15   -14.552   -14.634    -0.082     (0)  
   FeCl2+          1.811e-15   1.492e-15   -14.742   -14.826    -0.084     (0)  
   Fe2(OH)2+4      7.415e-16   3.368e-17   -15.130   -16.473    -1.343     (0)  
   FeCl3           3.728e-18   3.769e-18   -17.428   -17.424     0.005     (0)  
   Fe3(OH)4+5      3.263e-18   2.603e-20   -17.486   -19.585    -2.098     (0)  
   Fe(SO4)2-       7.520e-19   6.198e-19   -18.124   -18.208    -0.084     (0)  
   FeHSO4+2        1.346e-21   6.216e-22   -20.871   -21.207    -0.336     (0)  
H(0)          1.401e-25
   H2              7.003e-26   7.079e-26   -25.155   -25.150     0.005     (0)  
K             1.343e-03
   K+              1.343e-03   1.097e-03    -2.872    -2.960    -0.088     (0)  
   KSO4-           1.131e-07   9.405e-08    -6.947    -7.027    -0.080     (0)  
   KHPO4-          8.649e-09   7.192e-09    -8.063    -8.143    -0.080     (0)  
Mg            5.361e-03
   Mg+2            5.009e-03   2.457e-03    -2.300    -2.610    -0.309     (0)  
   MgHCO3+         3.278e-04   2.687e-04    -3.484    -3.571    -0.086     (0)  
   MgCO3           1.016e-05   1.028e-05    -4.993    -4.988     0.005     (0)  
   MgSO4           6.955e-06   7.031e-06    -5.158    -5.153     0.005     (0)  
   MgHPO4          6.061e-06   6.127e-06    -5.217    -5.213     0.005     (0)  
   MgH2PO4+        5.216e-07   4.338e-07    -6.283    -6.363    -0.080     (0)  
   MgPO4-          1.739e-07   1.446e-07    -6.760    -6.840    -0.080     (0)  
   MgOH+           1.061e-07   8.912e-08    -6.974    -7.050    -0.076     (0)  
Mn(2)         7.299e-06
   Mn+2            4.238e-06   2.072e-06    -5.373    -5.684    -0.311     (0)  
   MnHCO3+         2.083e-06   1.726e-06    -5.681    -5.763    -0.082     (0)  
   MnCO3           7.134e-07   7.212e-07    -6.147    -6.142     0.005     (0)  
   MnCl+           2.574e-07   2.132e-07    -6.589    -6.671    -0.082     (0)  
   MnSO4           4.448e-09   4.497e-09    -8.352    -8.347     0.005     (0)  
   MnCl2           2.325e-09   2.350e-09    -8.634    -8.629     0.005     (0)  
   MnOH+           6.422e-10   5.320e-10    -9.192    -9.274    -0.082     (0)  
   MnCl3-          1.974e-11   1.635e-11   -10.705   -10.787    -0.082     (0)  
   Mn(NO3)2        1.328e-15   1.343e-15   -14.877   -14.872     0.005     (0)  
   Mn(OH)3-        3.950e-20   3.272e-20   -19.403   -19.485    -0.082     (0)  
Mn(3)         2.596e-27
   Mn+3            2.596e-27   6.403e-28   -26.586   -27.194    -0.608     (0)  
Mn(6)         0.000e+00
   MnO4-2          0.000e+00   0.000e+00   -51.799   -52.126    -0.327     (0)  
Mn(7)         0.000e+00
   MnO4-           0.000e+00   0.000e+00   -57.418   -57.510    -0.091     (0)  
N(-3)         1.099e-03
   NH4+            1.093e-03   9.012e-04    -2.961    -3.045    -0.084     (0)  
   NH3             5.136e-06   5.136e-06    -5.289    -5.289     0.000     (0)  
   NH4SO4-         1.711e-07   1.417e-07    -6.767    -6.849    -0.082     (0)  
N(3)          7.157e-07
   NO2-            7.157e-07   5.900e-07    -6.145    -6.229    -0.084     (0)  
N(5)          1.575e-05
   NO3-            1.575e-05   1.276e-05    -4.803    -4.894    -0.091     (0)  
   Mn(NO3)2        1.328e-15   1.343e-15   -14.877   -14.872     0.005     (0)  
Na            1.374e-02
   Na+             1.368e-02   1.130e-02    -1.864    -1.947    -0.083     (0)  
   NaHCO3          5.874e-05   5.939e-05    -4.231    -4.226     0.005     (0)  
   NaCO3-          1.109e-06   9.222e-07    -5.955    -6.035    -0.080     (0)  
   NaSO4-          8.314e-07   6.914e-07    -6.080    -6.160    -0.080     (0)  
   NaHPO4-         8.913e-08   7.412e-08    -7.050    -7.130    -0.080     (0)  
Ni            2.049e-08
   NiCO3           1.805e-08   1.824e-08    -7.744    -7.739     0.005     (0)  
   Ni+2            1.217e-09   5.616e-10    -8.915    -9.251    -0.336     (0)  
   NiHCO3+         8.788e-10   7.244e-10    -9.056    -9.140    -0.084     (0)  
   Ni(CO3)2-2      3.009e-10   1.389e-10    -9.522    -9.857    -0.336     (0)  
   NiCl+           4.323e-11   3.563e-11   -10.364   -10.448    -0.084     (0)  
   NiCl2           3.232e-12   3.267e-12   -11.491   -11.486     0.005     (0)  
   NiSO4           1.322e-12   1.337e-12   -11.879   -11.874     0.005     (0)  
   NiOH+           9.394e-13   7.744e-13   -12.027   -12.111    -0.084     (0)  
   Ni(OH)2         5.542e-15   5.603e-15   -14.256   -14.252     0.005     (0)  
   Ni(SO4)2-2      1.898e-18   8.761e-19   -17.722   -18.057    -0.336     (0)  
   Ni(OH)3-        6.789e-19   5.596e-19   -18.168   -18.252    -0.084     (0)  
O(0)          0.000e+00
   O2              0.000e+00   0.000e+00   -42.086   -42.081     0.005     (0)  
P             2.460e-05
   HPO4-2          7.143e-06   3.363e-06    -5.146    -5.473    -0.327     (0)  
   H2PO4-          6.514e-06   5.417e-06    -5.186    -5.266    -0.080     (0)  
   MgHPO4          6.061e-06   6.127e-06    -5.217    -5.213     0.005     (0)  
   CaHPO4          3.381e-06   3.418e-06    -5.471    -5.466     0.005     (0)  
   MgH2PO4+        5.216e-07   4.338e-07    -6.283    -6.363    -0.080     (0)  
   CaH2PO4+        3.089e-07   2.569e-07    -6.510    -6.590    -0.080     (0)  
   FeHPO4          2.406e-07   2.432e-07    -6.619    -6.614     0.005     (0)  
   MgPO4-          1.739e-07   1.446e-07    -6.760    -6.840    -0.080     (0)  
   CaPO4-          9.724e-08   8.087e-08    -7.012    -7.092    -0.080     (0)  
   NaHPO4-         8.913e-08   7.412e-08    -7.050    -7.130    -0.080     (0)  
   FeH2PO4+        5.930e-08   4.931e-08    -7.227    -7.307    -0.080     (0)  
   KHPO4-          8.649e-09   7.192e-09    -8.063    -8.143    -0.080     (0)  
   PO4-3           8.257e-11   1.516e-11   -10.083   -10.819    -0.736     (0)  
   FeH2PO4+2       5.289e-14   2.529e-14   -13.277   -13.597    -0.320     (0)  
   FeHPO4+         1.886e-14   1.570e-14   -13.724   -13.804    -0.080     (0)  
S(6)          3.861e-05
   SO4-2           2.604e-05   1.221e-05    -4.584    -4.913    -0.329     (0)  
   MgSO4           6.955e-06   7.031e-06    -5.158    -5.153     0.005     (0)  
   CaSO4           4.465e-06   4.514e-06    -5.350    -5.345     0.005     (0)  
   NaSO4-          8.314e-07   6.914e-07    -6.080    -6.160    -0.080     (0)  
   NH4SO4-         1.711e-07   1.417e-07    -6.767    -6.849    -0.082     (0)  
   KSO4-           1.131e-07   9.405e-08    -6.947    -7.027    -0.080     (0)  
   FeSO4           3.899e-08   3.942e-08    -7.409    -7.404     0.005     (0)  
   MnSO4           4.448e-09   4.497e-09    -8.352    -8.347     0.005     (0)  
   HSO4-           1.440e-10   1.187e-10    -9.842    -9.926    -0.084     (0)  
   ZnSO4           1.032e-11   1.044e-11   -10.986   -10.981     0.005     (0)  
   CaHSO4+         3.208e-12   2.644e-12   -11.494   -11.578    -0.084     (0)  
   NiSO4           1.322e-12   1.337e-12   -11.879   -11.874     0.005     (0)  
   FeHSO4+         3.144e-14   2.591e-14   -13.503   -13.587    -0.084     (0)  
   AlSO4+          1.234e-14   1.017e-14   -13.909   -13.993    -0.084     (0)  
   FeSO4+          2.802e-15   2.321e-15   -14.552   -14.634    -0.082     (0)  
   Zn(SO4)2-2      2.243e-15   1.035e-15   -14.649   -14.985    -0.336     (0)  
   Al(SO4)2-       4.764e-18   3.926e-18   -17.322   -17.406    -0.084     (0)  
   Ni(SO4)2-2      1.898e-18   8.761e-19   -17.722   -18.057    -0.336     (0)  
   Fe(SO4)2-       7.520e-19   6.198e-19   -18.124   -18.208    -0.084     (0)  
   FeHSO4+2        1.346e-21   6.216e-22   -20.871   -21.207    -0.336     (0)  
   AlHSO4+2        1.954e-22   9.020e-23   -21.709   -22.045    -0.336     (0)  
Zn            1.687e-08
   Zn+2            7.460e-09   3.648e-09    -8.127    -8.438    -0.311     (0)  
   ZnHCO3+         5.205e-09   4.291e-09    -8.284    -8.367    -0.084     (0)  
   ZnCO3           3.154e-09   3.189e-09    -8.501    -8.496     0.005     (0)  
   Zn(CO3)2-2      6.472e-10   2.988e-10    -9.189    -9.525    -0.336     (0)  
   ZnCl+           3.025e-10   2.479e-10    -9.519    -9.606    -0.086     (0)  
   ZnOH+           4.846e-11   3.995e-11   -10.315   -10.399    -0.084     (0)  
   ZnOHCl          3.014e-11   3.047e-11   -10.521   -10.516     0.005     (0)  
   ZnSO4           1.032e-11   1.044e-11   -10.986   -10.981     0.005     (0)  
   ZnCl2           6.486e-12   6.557e-12   -11.188   -11.183     0.005     (0)  
   Zn(OH)2         4.531e-12   4.581e-12   -11.344   -11.339     0.005     (0)  
   ZnCl3-          2.267e-13   1.858e-13   -12.645   -12.731    -0.086     (0)  
   ZnCl4-2         4.995e-15   2.352e-15   -14.301   -14.629    -0.327     (0)  
   Zn(SO4)2-2      2.243e-15   1.035e-15   -14.649   -14.985    -0.336     (0)  
   Zn(OH)3-        1.755e-16   1.447e-16   -15.756   -15.840    -0.084     (0)  
   Zn(OH)4-2       4.962e-22   2.290e-22   -21.304   -21.640    -0.336     (0)  

------------------------------Saturation indices-------------------------------

  Phase               SI** log IAP   log K(298 K,   1 atm)

  Al(OH)3(a)       -2.38      8.42   10.80  Al(OH)3
  AlumK           -20.20    -25.37   -5.17  KAl(SO4)2:12H2O
  Alunite          -7.13     -8.53   -1.40  KAl3(SO4)2(OH)6
  Anhydrite        -3.28     -7.65   -4.36  CaSO4
  Aragonite         0.25     -8.09   -8.34  CaCO3
  Artinite         -6.18      3.42    9.60  MgCO3:Mg(OH)2:3H2O
  Basaluminite     -7.94     14.76   22.70  Al4(OH)10SO4
  Bianchite       -11.59    -13.35   -1.76  ZnSO4:6H2O
  Birnessite      -13.29     30.32   43.60  MnO2
  Bixbyite        -11.78    -12.39   -0.61  Mn2O3
  Boehmite         -0.16      8.42    8.58  AlOOH
  Brucite          -5.45     11.39   16.84  Mg(OH)2
  Bunsenite        -7.70      4.75   12.45  NiO
  Calcite           0.39     -8.09   -8.48  CaCO3
  CO2(g)           -1.21     -2.68   -1.47  CO2
  Diaspore          1.54      8.42    6.88  AlOOH
  Dolomite          1.03    -16.06  -17.09  CaMg(CO3)2
  Dolomite(d)       0.48    -16.06  -16.54  CaMg(CO3)2
  Epsomite         -5.39     -7.53   -2.14  MgSO4:7H2O
  Fe(OH)2.7Cl.3     7.70      4.66   -3.04  Fe(OH)2.7Cl0.3
  Fe(OH)3(a)        2.35      7.24    4.89  Fe(OH)3
  Fe3(OH)8          3.51     23.73   20.22  Fe3(OH)8
  Gibbsite          0.31      8.42    8.11  Al(OH)3
  Goethite          8.24      7.24   -1.00  FeOOH
  Goslarite       -11.40    -13.36   -1.96  ZnSO4:7H2O
  Gypsum           -3.07     -7.65   -4.58  CaSO4:2H2O
  H2(g)           -22.00    -25.15   -3.15  H2
  H2O(g)           -1.51     -0.00    1.51  H2O
  Halite           -5.13     -3.54    1.58  NaCl
  Hausmannite     -14.08     46.95   61.03  Mn3O4
  Hematite         18.48     14.48   -4.01  Fe2O3
  Huntite          -2.03    -31.99  -29.97  CaMg3(CO3)4
  Hydromagnesite  -11.72    -20.48   -8.76  Mg5(CO3)4(OH)2:4H2O
  Hydroxyapatite    1.34     -2.08   -3.42  Ca5(PO4)3OH
  Jarosite(ss)     -3.02    -12.85   -9.83  (K0.77Na0.03H0.2)Fe3(SO4)2(OH)6
  Jarosite-K       -2.86    -12.07   -9.21  KFe3(SO4)2(OH)6
  Jarosite-Na      -5.78    -11.06   -5.28  NaFe3(SO4)2(OH)6
  JarositeH       -10.72    -16.11   -5.39  (H3O)Fe3(SO4)2(OH)6
  Jurbanite        -7.26    -10.49   -3.23  AlOHSO4
  Maghemite         8.09     14.48    6.39  Fe2O3
  Magnesite         0.06     -7.97   -8.03  MgCO3
  Magnetite        20.00     23.74    3.74  Fe3O4
  Manganite        -6.02     19.32   25.34  MnOOH
  Melanterite      -7.45     -9.66   -2.21  FeSO4:7H2O
  Mirabilite       -7.70     -8.81   -1.11  Na2SO4:10H2O
  Mn2(SO4)3       -63.42    -69.13   -5.71  Mn2(SO4)3
  Mn3(PO4)2       -14.86    -38.69  -23.83  Mn3(PO4)2
  MnCl2:4H2O      -11.59     -8.88    2.71  MnCl2:4H2O
  MnHPO4            1.79    -11.16  -12.95  MnHPO4
  MnSO4           -13.27    -10.60    2.67  MnSO4
  Morenosite      -11.81    -14.17   -2.36  NiSO4:7H2O
  Nahcolite        -3.43     -3.98   -0.55  NaHCO3
  Natron           -7.95     -9.26   -1.31  Na2CO3:10H2O
  Nesquehonite     -2.35     -7.97   -5.62  MgCO3:3H2O
  NH3(g)           -7.06     -5.29    1.77  NH3
  Ni(OH)2          -6.05      4.75   10.80  Ni(OH)2
  Ni3(PO4)2       -18.09    -49.39  -31.30  Ni3(PO4)2
  Ni4(OH)6SO4     -31.92      0.08   32.00  Ni4(OH)6SO4
[...]
  Fe3(OH)8          6.77     26.99   20.22  Fe3(OH)8
  Goethite          9.32      8.32   -1.00  FeOOH
  Gypsum           -2.96     -7.54   -4.58  CaSO4:2H2O
  H2(g)           -22.00    -25.15   -3.15  H2
  H2O(g)           -1.51     -0.00    1.51  H2O
  Halite           -7.83     -6.25    1.58  NaCl
  Hausmannite     -12.65     48.38   61.03  Mn3O4
  Hematite         20.66     16.65   -4.01  Fe2O3
  Huntite          -6.17    -36.14  -29.97  CaMg3(CO3)4
  Hydromagnesite  -18.23    -26.99   -8.76  Mg5(CO3)4(OH)2:4H2O
  Hydroxyapatite   -2.19     -5.61   -3.42  Ca5(PO4)3OH
  Jarosite(ss)     -0.66    -10.49   -9.83  (K0.77Na0.03H0.2)Fe3(SO4)2(OH)6
  Jarosite-K       -0.79    -10.00   -9.21  KFe3(SO4)2(OH)6
  Jarosite-Na      -3.43     -8.71   -5.28  NaFe3(SO4)2(OH)6
  JarositeH        -7.25    -12.64   -5.39  (H3O)Fe3(SO4)2(OH)6
  Maghemite        10.26     16.65    6.39  Fe2O3
  Magnesite        -1.27     -9.30   -8.03  MgCO3
  Magnetite        23.25     26.99    3.74  Fe3O4
  Manganite        -5.55     19.79   25.34  MnOOH
  Melanterite      -6.25     -8.46   -2.21  FeSO4:7H2O
  Mirabilite       -9.83    -10.94   -1.11  Na2SO4:10H2O
  Mn2(SO4)3       -62.14    -67.85   -5.71  Mn2(SO4)3
  Mn3(PO4)2       -15.77    -39.60  -23.83  Mn3(PO4)2
  MnCl2:4H2O      -14.28    -11.57    2.71  MnCl2:4H2O
  MnHPO4            1.10    -11.85  -12.95  MnHPO4
  MnSO4           -12.68    -10.01    2.67  MnSO4
  Nahcolite        -4.70     -5.24   -0.55  NaHCO3
  Natron          -10.33    -11.64   -1.31  Na2CO3:10H2O
  Nesquehonite     -3.68     -9.30   -5.62  MgCO3:3H2O
  NH3(g)           -7.82     -6.05    1.77  NH3
  Nsutite         -11.77     30.79   42.56  MnO2
  O2(g)           -39.19    -42.08   -2.89  O2
  Portlandite     -11.54     11.26   22.80  Ca(OH)2
  Pyrochroite      -6.41      8.79   15.20  Mn(OH)2
  Pyrolusite      -10.59     30.79   41.38  MnO2
  Rhodochrosite     0.42    -10.71  -11.13  MnCO3
  Rhodochrosite(d)  -0.32    -10.71  -10.39  MnCO3
  Siderite          1.73     -9.16  -10.89  FeCO3
  Siderite(d)(3)    1.29     -9.16  -10.45  FeCO3
  Strengite         1.74    -24.66  -26.40  FePO4:2H2O
  Thenardite      -10.76    -10.94   -0.18  Na2SO4
  Thermonatrite   -11.77    -11.64    0.13  Na2CO3:H2O
  Trona           -16.09    -16.88   -0.80  NaHCO3:Na2CO3:2H2O
  Vivianite         1.06    -34.94  -36.00  Fe3(PO4)2:8H2O

**For a gas, SI = log10(fugacity). Fugacity = pressure * phi / 1 atm.
  For ideal gases, phi = 1.

Initial solution 10.	 test10 

-----------------------------Solution composition------------------------------

	Elements           Molality       Moles

	Al                7.415e-08   7.415e-08
	Alkalinity        2.891e-03   2.891e-03
	Ca                1.924e-03   1.924e-03
	Cl                1.467e-03   1.467e-03
	Fe                1.200e-05   1.200e-05
	K                 9.466e-05   9.466e-05
	Mg                2.164e-04   2.164e-04
	Mn                2.731e-06   2.731e-06
	N(-3)             9.999e-06   9.999e-06
	N(3)              2.343e-07   2.343e-07
	N(5)              4.900e-04   4.900e-04
	Na                9.443e-04   9.443e-04
	P                 4.845e-06   4.845e-06
	S(6)              3.457e-04   3.457e-04

----------------------------Description of solution----------------------------

                                       pH  =   7.000    
                                       pe  =   4.000    
                        Activity of water  =   1.000
                 Ionic strength (mol/kgw)  =   7.599e-03
                       Mass of water (kg)  =   1.000e+00
                    Total carbon (mol/kg)  =   3.462e-03
                       Total CO2 (mol/kg)  =   3.462e-03
                         Temperature (°C)  =  25.00
                  Electrical balance (eq)  =  -1.872e-04
 Percent error, 100*(Cat-|An|)/(Cat+|An|)  =  -1.78
                               Iterations  =   9
                                  Total H  = 1.110154e+02
                                  Total O  = 5.551890e+01

---------------------------------Redox couples---------------------------------

	Redox couple             pe  Eh (volts)

	N(-3)/N(3)           5.4800      0.3242
	N(-3)/N(5)           6.3462      0.3754
	N(3)/N(5)            8.9447      0.5291

----------------------------Distribution of species----------------------------

                                               Log       Log       Log    mole V
   Species          Molality    Activity  Molality  Activity     Gamma   cm³/mol

   OH-             1.099e-07   1.001e-07    -6.959    -7.000    -0.040     (0)  
   H+              1.085e-07   1.000e-07    -6.965    -7.000    -0.035      0.00
   H2O             5.551e+01   9.998e-01     1.744    -0.000     0.000     18.07
Al            7.415e-08
   Al(OH)4-        6.835e-08   6.242e-08    -7.165    -7.205    -0.039     (0)  
   Al(OH)3         3.307e-09   3.312e-09    -8.481    -8.480     0.001     (0)  
   Al(OH)2+        2.457e-09   2.248e-09    -8.610    -8.648    -0.039     (0)  
   AlOH+2          4.091e-11   2.869e-11   -10.388   -10.542    -0.154     (0)  
   Al+3            6.010e-13   2.889e-13   -12.221   -12.539    -0.318     (0)  
   AlSO4+          2.003e-13   1.829e-13   -12.698   -12.738    -0.039     (0)  
   Al(SO4)2-       1.268e-15   1.158e-15   -14.897   -14.936    -0.039     (0)  
   AlHSO4+2        2.339e-21   1.622e-21   -20.631   -20.790    -0.159     (0)  
C(4)          3.462e-03
   HCO3-           2.823e-03   2.584e-03    -2.549    -2.588    -0.039     (0)  
   CO2             5.800e-04   5.810e-04    -3.237    -3.236     0.001     (0)  
   CaHCO3+         4.597e-05   4.213e-05    -4.337    -4.375    -0.038     (0)  
   MgHCO3+         4.776e-06   4.357e-06    -5.321    -5.361    -0.040     (0)  
   CaCO3           2.591e-06   2.595e-06    -5.587    -5.586     0.001     (0)  
   CO3-2           1.727e-06   1.212e-06    -5.763    -5.917    -0.154     (0)  
   FeHCO3+         1.500e-06   1.369e-06    -5.824    -5.864    -0.040     (0)  
   NaHCO3          1.248e-06   1.250e-06    -5.904    -5.903     0.001     (0)  
   MnHCO3+         3.805e-07   3.479e-07    -6.420    -6.459    -0.039     (0)  
   MgCO3           1.664e-07   1.666e-07    -6.779    -6.778     0.001     (0)  
   FeCO3           1.537e-07   1.540e-07    -6.813    -6.813     0.001     (0)  
   MnCO3           1.451e-07   1.454e-07    -6.838    -6.837     0.001     (0)  
   NaCO3-          2.121e-08   1.941e-08    -7.673    -7.712    -0.039     (0)  
Ca            1.924e-03
   Ca+2            1.824e-03   1.278e-03    -2.739    -2.893    -0.154     (0)  
   CaSO4           5.098e-05   5.107e-05    -4.293    -4.292     0.001     (0)  
   CaHCO3+         4.597e-05   4.213e-05    -4.337    -4.375    -0.038     (0)  
   CaCO3           2.591e-06   2.595e-06    -5.587    -5.586     0.001     (0)  
   CaHPO4          8.245e-07   8.259e-07    -6.084    -6.083     0.001     (0)  
   CaH2PO4+        6.783e-08   6.208e-08    -7.169    -7.207    -0.039     (0)  
   CaPO4-          2.135e-08   1.954e-08    -7.671    -7.709    -0.039     (0)  
   CaOH+           2.315e-09   2.121e-09    -8.635    -8.673    -0.038     (0)  
   CaHSO4+         3.279e-11   2.992e-11   -10.484   -10.524    -0.040     (0)  
Cl            1.467e-03
   Cl-             1.467e-03   1.337e-03    -2.833    -2.874    -0.040     (0)  
   FeCl+           1.070e-08   9.780e-09    -7.971    -8.010    -0.039     (0)  
   MnCl+           9.001e-09   8.230e-09    -8.046    -8.085    -0.039     (0)  
   MnCl2           4.796e-12   4.804e-12   -11.319   -11.318     0.001     (0)  
   MnCl3-          1.935e-15   1.769e-15   -14.713   -14.752    -0.039     (0)  
   FeCl+2          2.923e-16   2.043e-16   -15.534   -15.690    -0.156     (0)  
   FeCl2+          1.337e-18   1.220e-18   -17.874   -17.913    -0.040     (0)  
   FeCl3           1.629e-22   1.632e-22   -21.788   -21.787     0.001     (0)  
Fe(2)         9.415e-06
   Fe+2            7.514e-06   5.298e-06    -5.124    -5.276    -0.152     (0)  
   FeHCO3+         1.500e-06   1.369e-06    -5.824    -5.864    -0.040     (0)  
   FeSO4           1.883e-07   1.886e-07    -6.725    -6.724     0.001     (0)  
   FeCO3           1.537e-07   1.540e-07    -6.813    -6.813     0.001     (0)  
   FeHPO4          2.481e-08   2.485e-08    -7.605    -7.605     0.001     (0)  
   FeOH+           1.832e-08   1.675e-08    -7.737    -7.776    -0.039     (0)  
   FeCl+           1.070e-08   9.780e-09    -7.971    -8.010    -0.039     (0)  
   FeH2PO4+        5.506e-09   5.039e-09    -8.259    -8.298    -0.039     (0)  
   Fe(OH)2         1.423e-12   1.426e-12   -11.847   -11.846     0.001     (0)  
   FeHSO4+         1.359e-13   1.240e-13   -12.867   -12.907    -0.040     (0)  
   Fe(OH)3-        5.792e-16   5.296e-16   -15.237   -15.276    -0.039     (0)  
Fe(3)         2.586e-06
   Fe(OH)3         1.390e-06   1.393e-06    -5.857    -5.856     0.001     (0)  
   Fe(OH)2+        1.182e-06   1.081e-06    -5.928    -5.966    -0.039     (0)  
   Fe(OH)4-        1.388e-08   1.270e-08    -7.858    -7.896    -0.039     (0)  
   FeOH+2          4.673e-10   3.266e-10    -9.330    -9.486    -0.156     (0)  
   FeSO4+          1.215e-14   1.111e-14   -13.916   -13.954    -0.039     (0)  
   Fe+3            1.053e-14   5.059e-15   -13.978   -14.296    -0.318     (0)  
   FeH2PO4+2       3.684e-15   2.584e-15   -14.434   -14.588    -0.154     (0)  
   FeHPO4+         1.753e-15   1.605e-15   -14.756   -14.795    -0.038     (0)  
   FeCl+2          2.923e-16   2.043e-16   -15.534   -15.690    -0.156     (0)  
   Fe(SO4)2-       5.331e-17   4.865e-17   -16.273   -16.313    -0.040     (0)  
   Fe2(OH)2+4      1.241e-17   2.871e-18   -16.906   -17.542    -0.636     (0)  
   FeCl2+          1.337e-18   1.220e-18   -17.874   -17.913    -0.040     (0)  
   Fe3(OH)4+5      6.388e-21   6.487e-22   -20.195   -21.188    -0.993     (0)  
   FeHSO4+2        4.289e-21   2.974e-21   -20.368   -20.527    -0.159     (0)  
   FeCl3           1.629e-22   1.632e-22   -21.788   -21.787     0.001     (0)  
H(0)          1.413e-25
   H2              7.067e-26   7.079e-26   -25.151   -25.150     0.001     (0)  
K             9.466e-05
   K+              9.453e-05   8.615e-05    -4.024    -4.065    -0.040     (0)  
   KSO4-           1.324e-07   1.212e-07    -6.878    -6.917    -0.039     (0)  
   KHPO4-          2.163e-10   1.979e-10    -9.665    -9.703    -0.039     (0)  
Mg            2.164e-04
   Mg+2            2.046e-04   1.441e-04    -3.689    -3.841    -0.152     (0)  
   MgSO4           6.753e-06   6.765e-06    -5.170    -5.170     0.001     (0)  
   MgHCO3+         4.776e-06   4.357e-06    -5.321    -5.361    -0.040     (0)  
   MgCO3           1.664e-07   1.666e-07    -6.779    -6.778     0.001     (0)  
   MgHPO4          1.257e-07   1.259e-07    -6.901    -6.900     0.001     (0)  
   MgH2PO4+        9.739e-09   8.913e-09    -8.011    -8.050    -0.039     (0)  
   MgOH+           5.704e-09   5.233e-09    -8.244    -8.281    -0.037     (0)  
   MgPO4-          3.247e-09   2.972e-09    -8.488    -8.527    -0.039     (0)  
Mn(2)         2.731e-06
   Mn+2            2.143e-06   1.511e-06    -5.669    -5.821    -0.152     (0)  
   MnHCO3+         3.805e-07   3.479e-07    -6.420    -6.459    -0.039     (0)  
   MnCO3           1.451e-07   1.454e-07    -6.838    -6.837     0.001     (0)  
   MnSO4           5.369e-08   5.379e-08    -7.270    -7.269     0.001     (0)  
   MnCl+           9.001e-09   8.230e-09    -8.046    -8.085    -0.039     (0)  
   MnOH+           4.246e-10   3.883e-10    -9.372    -9.411    -0.039     (0)  
   MnCl2           4.796e-12   4.804e-12   -11.319   -11.318     0.001     (0)  
   Mn(NO3)2        1.194e-12   1.196e-12   -11.923   -11.922     0.001     (0)  
   MnCl3-          1.935e-15   1.769e-15   -14.713   -14.752    -0.039     (0)  
   Mn(OH)3-        2.617e-20   2.393e-20   -19.582   -19.621    -0.039     (0)  
Mn(3)         9.713e-28
   Mn+3            9.713e-28   4.669e-28   -27.013   -27.331    -0.318     (0)  
Mn(6)         0.000e+00
   MnO4-2          0.000e+00   0.000e+00   -52.106   -52.261    -0.156     (0)  
Mn(7)         0.000e+00
   MnO4-           0.000e+00   0.000e+00   -57.604   -57.645    -0.041     (0)  
N(-3)         9.999e-06
   NH4+            9.922e-06   9.054e-06    -5.003    -5.043    -0.040     (0)  
   NH3             5.160e-08   5.160e-08    -7.287    -7.287     0.000     (0)  
   NH4SO4-         2.554e-08   2.335e-08    -7.593    -7.632    -0.039     (0)  
N(3)          2.343e-07
   NO2-            2.343e-07   2.138e-07    -6.630    -6.670    -0.040     (0)  
N(5)          4.900e-04
   NO3-            4.900e-04   4.459e-04    -3.310    -3.351    -0.041     (0)  
   Mn(NO3)2        1.194e-12   1.196e-12   -11.923   -11.922     0.001     (0)  
Na            9.443e-04
   Na+             9.420e-04   8.605e-04    -3.026    -3.065    -0.039     (0)  
   NaHCO3          1.248e-06   1.250e-06    -5.904    -5.903     0.001     (0)  
   NaSO4-          9.435e-07   8.635e-07    -6.025    -6.064    -0.039     (0)  
   NaCO3-          2.121e-08   1.941e-08    -7.673    -7.712    -0.039     (0)  
   NaHPO4-         2.160e-09   1.977e-09    -8.665    -8.704    -0.039     (0)  
O(0)          0.000e+00
   O2              0.000e+00   0.000e+00   -42.081   -42.080     0.001     (0)  
P             4.845e-06
   H2PO4-          2.074e-06   1.898e-06    -5.683    -5.722    -0.039     (0)  
   HPO4-2          1.686e-06   1.178e-06    -5.773    -5.929    -0.156     (0)  
   CaHPO4          8.245e-07   8.259e-07    -6.084    -6.083     0.001     (0)  
   MgHPO4          1.257e-07   1.259e-07    -6.901    -6.900     0.001     (0)  
   CaH2PO4+        6.783e-08   6.208e-08    -7.169    -7.207    -0.039     (0)  
   FeHPO4          2.481e-08   2.485e-08    -7.605    -7.605     0.001     (0)  
   CaPO4-          2.135e-08   1.954e-08    -7.671    -7.709    -0.039     (0)  
   MgH2PO4+        9.739e-09   8.913e-09    -8.011    -8.050    -0.039     (0)  
   FeH2PO4+        5.506e-09   5.039e-09    -8.259    -8.298    -0.039     (0)  
   MgPO4-          3.247e-09   2.972e-09    -8.488    -8.527    -0.039     (0)  
   NaHPO4-         2.160e-09   1.977e-09    -8.665    -8.704    -0.039     (0)  
   KHPO4-          2.163e-10   1.979e-10    -9.665    -9.703    -0.039     (0)  
   PO4-3           1.189e-11   5.312e-12   -10.925   -11.275    -0.350     (0)  
   FeH2PO4+2       3.684e-15   2.584e-15   -14.434   -14.588    -0.154     (0)  
   FeHPO4+         1.753e-15   1.605e-15   -14.756   -14.795    -0.038     (0)  
S(6)          3.457e-04
   SO4-2           2.867e-04   2.002e-04    -3.543    -3.699    -0.156     (0)  
   CaSO4           5.098e-05   5.107e-05    -4.293    -4.292     0.001     (0)  
   MgSO4           6.753e-06   6.765e-06    -5.170    -5.170     0.001     (0)  
   NaSO4-          9.435e-07   8.635e-07    -6.025    -6.064    -0.039     (0)  
   FeSO4           1.883e-07   1.886e-07    -6.725    -6.724     0.001     (0)  
   KSO4-           1.324e-07   1.212e-07    -6.878    -6.917    -0.039     (0)  
   MnSO4           5.369e-08   5.379e-08    -7.270    -7.269     0.001     (0)  
   NH4SO4-         2.554e-08   2.335e-08    -7.593    -7.632    -0.039     (0)  
   HSO4-           2.131e-09   1.947e-09    -8.671    -8.711    -0.039     (0)  
   CaHSO4+         3.279e-11   2.992e-11   -10.484   -10.524    -0.040     (0)  
   AlSO4+          2.003e-13   1.829e-13   -12.698   -12.738    -0.039     (0)  
   FeHSO4+         1.359e-13   1.240e-13   -12.867   -12.907    -0.040     (0)  
   FeSO4+          1.215e-14   1.111e-14   -13.916   -13.954    -0.039     (0)  
   Al(SO4)2-       1.268e-15   1.158e-15   -14.897   -14.936    -0.039     (0)  
   Fe(SO4)2-       5.331e-17   4.865e-17   -16.273   -16.313    -0.040     (0)  
   FeHSO4+2        4.289e-21   2.974e-21   -20.368   -20.527    -0.159     (0)  
   AlHSO4+2        2.339e-21   1.622e-21   -20.631   -20.790    -0.159     (0)  

------------------------------Saturation indices-------------------------------

  Phase               SI** log IAP   log K(298 K,   1 atm)

  Al(OH)3(a)       -2.34      8.46   10.80  Al(OH)3
  AlumK           -18.83    -24.00   -5.17  KAl(SO4)2:12H2O
  Alunite          -5.68     -7.08   -1.40  KAl3(SO4)2(OH)6
  Anhydrite        -2.23     -6.59   -4.36  CaSO4
  Aragonite        -0.47     -8.81   -8.34  CaCO3
  Artinite         -9.20      0.40    9.60  MgCO3:Mg(OH)2:3H2O
  Basaluminite     -6.56     16.14   22.70  Al4(OH)10SO4
  Birnessite      -13.42     30.18   43.60  MnO2
  Bixbyite        -12.05    -12.66   -0.61  Mn2O3
  Boehmite         -0.12      8.46    8.58  AlOOH
  Brucite          -6.68     10.16   16.84  Mg(OH)2
  Calcite          -0.33     -8.81   -8.48  CaCO3
  CO2(g)           -1.77     -3.24   -1.47  CO2
  Diaspore          1.58      8.46    6.88  AlOOH
  Dolomite         -1.48    -18.57  -17.09  CaMg(CO3)2
  Dolomite(d)      -2.03    -18.57  -16.54  CaMg(CO3)2
  Epsomite         -5.40     -7.54   -2.14  MgSO4:7H2O
  Fe(OH)2.7Cl.3     6.78      3.74   -3.04  Fe(OH)2.7Cl0.3
  Fe(OH)3(a)        1.81      6.70    4.89  Fe(OH)3
  Fe3(OH)8          1.91     22.13   20.22  Fe3(OH)8
  Gibbsite          0.35      8.46    8.11  Al(OH)3
  Goethite          7.70      6.70   -1.00  FeOOH
  Gypsum           -2.01     -6.59   -4.58  CaSO4:2H2O
  H2(g)           -22.00    -25.15   -3.15  H2
  H2O(g)           -1.51     -0.00    1.51  H2O
  Halite           -7.52     -5.94    1.58  NaCl
  Hausmannite     -14.49     46.54   61.03  Mn3O4
  Hematite         17.42     13.41   -4.01  Fe2O3
  Huntite          -8.12    -38.08  -29.97  CaMg3(CO3)4
  Hydromagnesite  -20.11    -28.87   -8.76  Mg5(CO3)4(OH)2:4H2O
  Hydroxyapatite   -0.83     -4.25   -3.42  Ca5(PO4)3OH
  Jarosite(ss)     -3.08    -12.91   -9.83  (K0.77Na0.03H0.2)Fe3(SO4)2(OH)6
  Jarosite-K       -3.14    -12.35   -9.21  KFe3(SO4)2(OH)6
  Jarosite-Na      -6.07    -11.35   -5.28  NaFe3(SO4)2(OH)6
  JarositeH        -9.90    -15.29   -5.39  (H3O)Fe3(SO4)2(OH)6
  Jurbanite        -6.01     -9.24   -3.23  AlOHSO4
  Maghemite         7.02     13.41    6.39  Fe2O3
  Magnesite        -1.73     -9.76   -8.03  MgCO3
  Magnetite        18.40     22.13    3.74  Fe3O4
  Manganite        -6.16     19.18   25.34  MnOOH
  Melanterite      -6.77     -8.97   -2.21  FeSO4:7H2O
  Mirabilite       -8.72     -9.83   -1.11  Na2SO4:10H2O
  Mn2(SO4)3       -60.05    -65.76   -5.71  Mn2(SO4)3
  Mn3(PO4)2       -16.18    -40.01  -23.83  Mn3(PO4)2
  MnCl2:4H2O      -14.28    -11.57    2.71  MnCl2:4H2O
  MnHPO4            1.20    -11.75  -12.95  MnHPO4
  MnSO4           -12.19     -9.52    2.67  MnSO4
  Nahcolite        -5.11     -5.65   -0.55  NaHCO3
  Natron          -10.74    -12.05   -1.31  Na2CO3:10H2O
  Nesquehonite     -4.14     -9.76   -5.62  MgCO3:3H2O
  NH3(g)           -9.06     -7.29    1.77  NH3
  Nsutite         -12.38     30.18   42.56  MnO2
  O2(g)           -39.19    -42.08   -2.89  O2
  Portlandite     -11.69     11.11   22.80  Ca(OH)2
  Pyrochroite      -7.02      8.18   15.20  Mn(OH)2
  Pyrolusite      -11.20     30.18   41.38  MnO2
  Rhodochrosite    -0.61    -11.74  -11.13  MnCO3
  Rhodochrosite(d)  -1.35    -11.74  -10.39  MnCO3
  Siderite         -0.30    -11.19  -10.89  FeCO3
  Siderite(d)(3)   -0.74    -11.19  -10.45  FeCO3
  Strengite         0.83    -25.57  -26.40  FePO4:2H2O
  Thenardite       -9.65     -9.83   -0.18  Na2SO4
  Thermonatrite   -12.17    -12.05    0.13  Na2CO3:H2O
  Trona           -16.91    -17.70   -0.80  NaHCO3:Na2CO3:2H2O
  Vivianite        -2.38    -38.38  -36.00  Fe3(PO4)2:8H2O

**For a gas, SI = log10(fugacity). Fugacity = pressure * phi / 1 atm.
  For ideal gases, phi = 1.

------------------
End of simulation.
------------------

------------------------------------
Reading input data for simulation 2.
------------------------------------

-------------------------------
End of Run after 0.126 Seconds.
-------------------------------

