   Input file: C:\Users\Johannes\Documents\HydrochemicalModelling\GIT\Homework2017\Phrqc_test.pqi
  Output file: C:\Users\Johannes\Documents\HydrochemicalModelling\GIT\Homework2017\Phrqc_test.pqo
Database file: C:\Program Files (x86)\USGS\Phreeqc Interactive 3.3.12-12704\database\wateq4f.dat

------------------
Reading data base.
------------------

	SOLUTION_MASTER_SPECIES
	SOLUTION_SPECIES
	PHASES
	EXCHANGE_MASTER_SPECIES
	EXCHANGE_SPECIES
	SURFACE_MASTER_SPECIES
	SURFACE_SPECIES
	RATES
	END
------------------------------------
Reading input data for simulation 1.
------------------------------------

	DATABASE C:\Program Files (x86)\USGS\Phreeqc Interactive 3.3.12-12704\database\wateq4f.dat
	SOLUTION_SPREAD
	units mol/l
	Comment	Al	N(-3)	Ba	Ca	Cl	Fe	F	K	Mg	Mn	Na	Ni	N(+5)	N(+3)	P	Si	S(6)	Zn	Alkalinity
		mg/l	mg/l	mg/l	mg/l	mg/l	mg/l	mg/l	mg/l	mg/l	mg/l	mg/l	mg/l	mg/l	mg/l	mg/l	mg/l	mg/l	mg/l	mol/l as HCO3
	10L54165002	0,002	13,61		610	4270	13,7		38,8	140	3,36	1300	0,0005	0,22	0,04	0,05		174	0,005	0,01083
	10L62076008		0,001288		8,9	2,3	0,02		1,5	7,2	0,71	13	0,011	0,02	30,14			22	0,016	3E-05
	10L62023004	0,08	0,27		22	9	0,27		1,8	4,1	0,11	55		2,21	0,21	5,23		9,73		0,00345
	10L54141002	0,002	15,35		166	1094	3,9		52,4	130	0,4	315	0,0012	0,22	0,01	0,76		3,7	0,0011	0,01198
	10L58064003		0,45		112	16,4	6,4		4	12	0,26	15		0,22	0,19	0,49		14,3		0,00592
	10L03003001		1	0,1	68	196	1,8	0,41	4,5	13	0,17	170	0,002	0,04	0,01	0,6		6	0,03	0,00651
	10L60004010		0,32		94	26	7,8		1,4	7,7	0,42	9,8		0,44	0,006569	1,71		4,5		0,005
	10L55036001	0,01	1,02		62	209	1,5		7,6	21	0,09	200	0,0005	2,21	0,01	0,06		17,9	0,0027	0,00739
	10L56016004		2,44		120	26	35		1,9	6,3	0,83	22		0,44	0,006569	0,04		3		0,0079
	SELECTED_OUTPUT
	file C:\Users\Johannes\Documents\HydrochemicalModelling\GIT\Homework2017\phreeqc_test.csv # name of output file. OBLIGATORY
	ph true
	temperature true
	alkalinity true
	charge_balance balance true
	percent_error error true
	equilibrium_phases CO2 # equilibrium_phases, note abbreviation -eq
	saturation_indices	Calcite Aragonite Kaolinite Gibbsite Montmorillonite-Ca Chlorite14A Pyrophyllite SiO2(a) CO2(g) 
	totals  Al N(-3) Ba Ca Cl Fe F K Mg Mn Na Ni N(+5) N(+3) P Si S(6) Zn Alkalinity  N C O2(g) CO2(g)
-----
TITLE
-----

	Al	N(-3)	Ba	Ca	Cl	Fe	F	K	Mg	Mn	Na	Ni	N(+5)	N(+3)	P	Si	S(6)	Zn	Alkalinity
	mg/l	mg/l	mg/l	mg/l	mg/l	mg/l	mg/l	mg/l	mg/l	mg/l	mg/l	mg/l	mg/l	mg/l	mg/l	mg/l	mg/l	mg/l	mol/l as HCO3
10L54165002	0,002	13,61		610	4270	13,7		38,8	140	3,36	1300	0,0005	0,22	0,04	0,05		174	0,005	0,01083
10L62076008		0,001288		8,9	2,3	0,02		1,5	7,2	0,71	13	0,011	0,02	30,14			22	0,016	3E-05
10L62023004	0,08	0,27		22	9	0,27		1,8	4,1	0,11	55		2,21	0,21	5,23		9,73		0,00345
10L54141002	0,002	15,35		166	1094	3,9		52,4	130	0,4	315	0,0012	0,22	0,01	0,76		3,7	0,0011	0,01198
10L58064003		0,45		112	16,4	6,4		4	12	0,26	15		0,22	0,19	0,49		14,3		0,00592
10L03003001		1	0,1	68	196	1,8	0,41	4,5	13	0,17	170	0,002	0,04	0,01	0,6		6	0,03	0,00651
10L60004010		0,32		94	26	7,8		1,4	7,7	0,42	9,8		0,44	0,006569	1,71		4,5		0,005
10L55036001	0,01	1,02		62	209	1,5		7,6	21	0,09	200	0,0005	2,21	0,01	0,06		17,9	0,0027	0,00739
10L56016004		2,44		120	26	35		1,9	6,3	0,83	22		0,44	0,006569	0,04		3		0,0079

WARNING: Did not find master species, O2(g).
WARNING: Did not find master species, CO2(g).
WARNING: Did not find phase, CO2.
------------------
End of simulation.
------------------

------------------------------------
Reading input data for simulation 2.
------------------------------------

------------------------------
End of Run after 0.06 Seconds.
------------------------------

