   Input file: C:\Users\Johannes\Documents\HydrochemicalModelling\GIT\Homework2017\Phrqc_test.pqi
  Output file: C:\Users\Johannes\Documents\HydrochemicalModelling\GIT\Homework2017\Phrqc_test.pqo
Database file: C:\Program Files (x86)\USGS\Phreeqc Interactive 3.3.12-12704\database\wateq4f.dat

------------------
Reading data base.
------------------

	SOLUTION_MASTER_SPECIES
	SOLUTION_SPECIES
	PHASES
	EXCHANGE_MASTER_SPECIES
	EXCHANGE_SPECIES
	SURFACE_MASTER_SPECIES
	SURFACE_SPECIES
	RATES
	END
------------------------------------
Reading input data for simulation 1.
------------------------------------

	DATABASE C:\Program Files (x86)\USGS\Phreeqc Interactive 3.3.12-12704\database\wateq4f.dat
	EQUILIBRUM_PHASES
WARNING: Unknown input, no keyword has been specified.
	 CO2(g) -2.0
WARNING: 	 CO2(g) -2.0

	SOLUTION_SPREAD
	units mg/l
	Number	Al	N(-3)	Ba	Ca	Cl	Fe	F	K	Mg	Mn	Na	Ni	N(+5)	N(+3)	P	Si	S(6)	Zn	Alkalinity
		mg/l	mg/l	mg/l	mg/l	mg/l	mg/l	mg/l	mg/l	mg/l	mg/l	mg/l	mg/l	mg/l	mg/l	mg/l	mg/l	mg/l	mg/l	mol/l as HCO3
	1	0,002	13,61		610	4270	13,7		38,8	140	3,36	1300	0,0005	0,22	0,04	0,05		174	0,005	0,01083
WARNING: Alkalinity given in moles, assumed to be equivalents.
	2		0,001288		8,9	2,3	0,02		1,5	7,2	0,71	13	0,011	0,02	30,14			22	0,016	3E-05
WARNING: Alkalinity given in moles, assumed to be equivalents.
	3	0,08	0,27		22	9	0,27		1,8	4,1	0,11	55		2,21	0,21	5,23		9,73		0,00345
WARNING: Alkalinity given in moles, assumed to be equivalents.
	4	0,002	15,35		166	1094	3,9		52,4	130	0,4	315	0,0012	0,22	0,01	0,76		3,7	0,0011	0,01198
WARNING: Alkalinity given in moles, assumed to be equivalents.
	5		0,45		112	16,4	6,4		4	12	0,26	15		0,22	0,19	0,49		14,3		0,00592
WARNING: Alkalinity given in moles, assumed to be equivalents.
	6		1	0,1	68	196	1,8	0,41	4,5	13	0,17	170	0,002	0,04	0,01	0,6		6	0,03	0,00651
WARNING: Alkalinity given in moles, assumed to be equivalents.
	7		0,32		94	26	7,8		1,4	7,7	0,42	9,8		0,44	0,006569	1,71		4,5		0,005
WARNING: Alkalinity given in moles, assumed to be equivalents.
	8	0,01	1,02		62	209	1,5		7,6	21	0,09	200	0,0005	2,21	0,01	0,06		17,9	0,0027	0,00739
WARNING: Alkalinity given in moles, assumed to be equivalents.
	9		2,44		120	26	35		1,9	6,3	0,83	22		0,44	0,006569	0,04		3		0,0079
WARNING: Alkalinity given in moles, assumed to be equivalents.
	SELECTED_OUTPUT
		file C:\Users\Johannes\Documents\HydrochemicalModelling\GIT\Homework2017\phreeqc_test.csv # name of output file. OBLIGATORY
		ph true
		percent_error error true
		alkalinity true
		charge_balance balance true
		equilibrium_phases CO2(g)
		saturation_indices	Calcite Aragonite Kaolinite Gibbsite Montmorillonite-Ca Chlorite14A Pyrophyllite SiO2(a) CO2(g) 
		totals  Al N(-3) Ba Ca Cl Fe F K Mg Mn Na Ni N(+5) N(+3) P Si S(6) Zn Alkalinity  N C O2(g) CO2(g)
WARNING: Did not find master species, O2(g).
WARNING: Did not find master species, CO2(g).
-------------------------------------------
Beginning of initial solution calculations.
-------------------------------------------

Initial solution 1.	

-----------------------------Solution composition------------------------------

	Elements           Molality       Moles

	Ca                1.532e-02   1.532e-02
	Cl                1.212e-01   1.212e-01
	Fe                2.343e-04   2.343e-04
	K                 9.782e-04   9.782e-04
	Mg                5.797e-03   5.797e-03
	Mn                5.497e-05   5.497e-05
	N(-3)             9.343e-04   9.343e-04
	Na                5.692e-02   5.692e-02
	S(6)              1.823e-03   1.823e-03

----------------------------Description of solution----------------------------

                                       pH  =   7.000    
                                       pe  =   4.000    
                        Activity of water  =   0.997
                 Ionic strength (mol/kgw)  =   1.338e-01
                       Mass of water (kg)  =   1.000e+00
                 Total alkalinity (eq/kg)  =   2.191e-05
                    Total carbon (mol/kg)  =   0.000e+00
                       Total CO2 (mol/kg)  =   0.000e+00
                         Temperature (°C)  =  25.00
                  Electrical balance (eq)  =  -2.330e-02
 Percent error, 100*(Cat-|An|)/(Cat+|An|)  = -10.41
                               Iterations  =   4
                                  Total H  = 1.110163e+02
                                  Total O  = 5.551360e+01

----------------------------Distribution of species----------------------------

                                               Log       Log       Log    mole V
   Species          Molality    Activity  Molality  Activity     Gamma   cm³/mol

   OH-             1.350e-07   9.976e-08    -6.870    -7.001    -0.131     (0)  
   H+              1.229e-07   1.000e-07    -6.910    -7.000    -0.090      0.00
   H2O             5.551e+01   9.966e-01     1.744    -0.001     0.000     18.07
Ca            1.532e-02
   Ca+2            1.493e-02   5.368e-03    -1.826    -2.270    -0.444     (0)  
   CaSO4           3.946e-04   4.070e-04    -3.404    -3.390     0.013     (0)  
   CaOH+           1.140e-08   8.878e-09    -7.943    -8.052    -0.108     (0)  
   CaHSO4+         3.115e-10   2.384e-10    -9.507    -9.623    -0.116     (0)  
Cl            1.212e-01
   Cl-             1.212e-01   9.000e-02    -0.916    -1.046    -0.129     (0)  
   FeCl+           1.099e-05   8.401e-06    -4.959    -5.076    -0.117     (0)  
   MnCl+           8.050e-06   6.155e-06    -5.094    -5.211    -0.117     (0)  
   MnCl2           2.345e-07   2.418e-07    -6.630    -6.617     0.013     (0)  
   MnCl3-          7.839e-09   5.994e-09    -8.106    -8.222    -0.117     (0)  
   FeCl+2          5.135e-13   1.755e-13   -12.289   -12.756    -0.466     (0)  
   FeCl2+          9.219e-14   7.056e-14   -13.035   -13.151    -0.116     (0)  
   FeCl3           6.157e-16   6.350e-16   -15.211   -15.197     0.013     (0)  
Fe(2)         1.992e-04
   Fe+2            1.835e-04   6.762e-05    -3.736    -4.170    -0.434     (0)  
   FeCl+           1.099e-05   8.401e-06    -4.959    -5.076    -0.117     (0)  
   FeSO4           4.430e-06   4.569e-06    -5.354    -5.340     0.013     (0)  
   FeOH+           2.787e-07   2.131e-07    -6.555    -6.671    -0.117     (0)  
   Fe(OH)2         1.753e-11   1.808e-11   -10.756   -10.743     0.013     (0)  
   FeHSO4+         3.924e-12   3.003e-12   -11.406   -11.522    -0.116     (0)  
   Fe(OH)3-        8.753e-15   6.692e-15   -14.058   -14.174    -0.117     (0)  
Fe(3)         3.508e-05
   Fe(OH)2+        1.779e-05   1.371e-05    -4.750    -4.863    -0.113     (0)  
   Fe(OH)3         1.707e-05   1.760e-05    -4.768    -4.754     0.013     (0)  
   Fe(OH)4-        2.076e-07   1.600e-07    -6.683    -6.796    -0.113     (0)  
   FeOH+2          1.216e-08   4.155e-09    -7.915    -8.381    -0.466     (0)  
   FeCl+2          5.135e-13   1.755e-13   -12.289   -12.756    -0.466     (0)  
   Fe+3            4.138e-13   6.458e-14   -12.383   -13.190    -0.807     (0)  
   FeSO4+          3.519e-13   2.690e-13   -12.454   -12.570    -0.117     (0)  
   FeCl2+          9.219e-14   7.056e-14   -13.035   -13.151    -0.116     (0)  
   Fe2(OH)2+4      3.351e-14   4.647e-16   -13.475   -15.333    -1.858     (0)  
   Fe(SO4)2-       2.922e-15   2.237e-15   -14.534   -14.650    -0.116     (0)  
   Fe3(OH)4+5      1.065e-15   1.331e-18   -14.973   -17.876    -2.903     (0)  
   FeCl3           6.157e-16   6.350e-16   -15.211   -15.197     0.013     (0)  
   FeHSO4+2        2.100e-19   7.204e-20   -18.678   -19.142    -0.465     (0)  
H(0)          1.373e-25
   H2              6.865e-26   7.079e-26   -25.163   -25.150     0.013     (0)  
K             9.782e-04
   K+              9.757e-04   7.244e-04    -3.011    -3.140    -0.129     (0)  
   KSO4-           2.510e-06   1.934e-06    -5.600    -5.714    -0.113     (0)  
Mg            5.797e-03
   Mg+2            5.613e-03   2.121e-03    -2.251    -2.673    -0.423     (0)  
   MgSO4           1.832e-04   1.890e-04    -3.737    -3.724     0.013     (0)  
   MgOH+           9.770e-08   7.676e-08    -7.010    -7.115    -0.105     (0)  
Mn(2)         5.497e-05
   Mn+2            4.557e-05   1.679e-05    -4.341    -4.775    -0.434     (0)  
   MnCl+           8.050e-06   6.155e-06    -5.094    -5.211    -0.117     (0)  
   MnSO4           1.100e-06   1.134e-06    -5.959    -5.945     0.013     (0)  
   MnCl2           2.345e-07   2.418e-07    -6.630    -6.617     0.013     (0)  
   MnCl3-          7.839e-09   5.994e-09    -8.106    -8.222    -0.117     (0)  
   MnOH+           5.624e-09   4.301e-09    -8.250    -8.366    -0.117     (0)  
   Mn(OH)3-        3.444e-19   2.633e-19   -18.463   -18.579    -0.117     (0)  
Mn(3)         3.325e-26
   Mn+3            3.325e-26   5.188e-27   -25.478   -26.285    -0.807     (0)  
Mn(6)         0.000e+00
   MnO4-2          0.000e+00   0.000e+00   -50.755   -51.221    -0.466     (0)  
Mn(7)         0.000e+00
   MnO4-           0.000e+00   0.000e+00   -56.468   -56.605    -0.137     (0)  
N(-3)         9.343e-04
   NH4+            9.257e-04   7.085e-04    -3.034    -3.150    -0.116     (0)  
   NH4SO4-         4.536e-06   3.468e-06    -5.343    -5.460    -0.117     (0)  
   NH3             4.038e-06   4.038e-06    -5.394    -5.394     0.000     (0)  
Na            5.692e-02
   Na+             5.681e-02   4.350e-02    -1.246    -1.362    -0.116     (0)  
   NaSO4-          1.075e-04   8.284e-05    -3.969    -4.082    -0.113     (0)  
O(0)          0.000e+00
   O2              0.000e+00   0.000e+00   -42.096   -42.083     0.013     (0)  
S(6)          1.823e-03
   SO4-2           1.125e-03   3.800e-04    -2.949    -3.420    -0.472     (0)  
   CaSO4           3.946e-04   4.070e-04    -3.404    -3.390     0.013     (0)  
   MgSO4           1.832e-04   1.890e-04    -3.737    -3.724     0.013     (0)  
   NaSO4-          1.075e-04   8.284e-05    -3.969    -4.082    -0.113     (0)  
   NH4SO4-         4.536e-06   3.468e-06    -5.343    -5.460    -0.117     (0)  
   FeSO4           4.430e-06   4.569e-06    -5.354    -5.340     0.013     (0)  
   KSO4-           2.510e-06   1.934e-06    -5.600    -5.714    -0.113     (0)  
   MnSO4           1.100e-06   1.134e-06    -5.959    -5.945     0.013     (0)  
   HSO4-           4.882e-09   3.694e-09    -8.311    -8.432    -0.121     (0)  
   CaHSO4+         3.115e-10   2.384e-10    -9.507    -9.623    -0.116     (0)  
   FeHSO4+         3.924e-12   3.003e-12   -11.406   -11.522    -0.116     (0)  
   FeSO4+          3.519e-13   2.690e-13   -12.454   -12.570    -0.117     (0)  
   Fe(SO4)2-       2.922e-15   2.237e-15   -14.534   -14.650    -0.116     (0)  
   FeHSO4+2        2.100e-19   7.204e-20   -18.678   -19.142    -0.465     (0)  

------------------------------Saturation indices-------------------------------

  Phase               SI** log IAP   log K(298 K,   1 atm)

  Anhydrite        -1.33     -5.69   -4.36  CaSO4
  Birnessite      -12.38     31.22   43.60  MnO2
  Bixbyite         -9.96    -10.57   -0.61  Mn2O3
  Brucite          -5.52     11.32   16.84  Mg(OH)2
  Epsomite         -3.96     -6.10   -2.14  MgSO4:7H2O
  Fe(OH)2.7Cl.3     8.43      5.39   -3.04  Fe(OH)2.7Cl0.3
  Fe(OH)3(a)        2.91      7.81    4.89  Fe(OH)3
  Fe3(OH)8          5.22     25.44   20.22  Fe3(OH)8
  Goethite          8.81      7.81   -1.00  FeOOH
  Gypsum           -1.11     -5.69   -4.58  CaSO4:2H2O
  H2(g)           -22.00    -25.15   -3.15  H2
  H2O(g)           -1.51     -0.00    1.51  H2O
  Halite           -3.99     -2.41    1.58  NaCl
  Hausmannite     -11.36     49.67   61.03  Mn3O4
  Hematite         19.62     15.62   -4.01  Fe2O3
  Jarosite(ss)      1.55     -8.28   -9.83  (K0.77Na0.03H0.2)Fe3(SO4)2(OH)6
  Jarosite-K        1.65     -7.56   -9.21  KFe3(SO4)2(OH)6
  Jarosite-Na      -0.50     -5.78   -5.28  NaFe3(SO4)2(OH)6
  JarositeH        -6.03    -11.42   -5.39  (H3O)Fe3(SO4)2(OH)6
  Maghemite         9.23     15.62    6.39  Fe2O3
  Magnetite        21.71     25.44    3.74  Fe3O4
  Manganite        -5.12     20.22   25.34  MnOOH
  Melanterite      -5.39     -7.60   -2.21  FeSO4:7H2O
  Mirabilite       -5.04     -6.16   -1.11  Na2SO4:10H2O
  Mn2(SO4)3       -57.12    -62.83   -5.71  Mn2(SO4)3
  MnCl2:4H2O       -9.58     -6.87    2.71  MnCl2:4H2O
  MnSO4           -10.86     -8.20    2.67  MnSO4
  NH3(g)           -7.16     -5.39    1.77  NH3
  Nsutite         -11.34     31.22   42.56  MnO2
  O2(g)           -39.19    -42.08   -2.89  O2
  Portlandite     -11.07     11.73   22.80  Ca(OH)2
  Pyrochroite      -5.98      9.22   15.20  Mn(OH)2
  Pyrolusite      -10.16     31.22   41.38  MnO2
  Thenardite       -5.96     -6.14   -0.18  Na2SO4

**For a gas, SI = log10(fugacity). Fugacity = pressure * phi / 1 atm.
  For ideal gases, phi = 1.

Initial solution 2.	

-----------------------------Solution composition------------------------------

	Elements           Molality       Moles

	Alkalinity        3.000e-05   3.000e-05
	Ca                1.996e-04   1.996e-04
	Cl                5.642e-05   5.642e-05
	K                 2.558e-05   2.558e-05
	Mg                2.879e-04   2.879e-04
	N(3)              2.142e-03   2.142e-03
	Na                5.655e-04   5.655e-04
	S(6)              2.290e-04   2.290e-04

----------------------------Description of solution----------------------------

                                       pH  =   7.000    
                                       pe  =   4.000    
                        Activity of water  =   1.000
                 Ionic strength (mol/kgw)  =   2.785e-03
                       Mass of water (kg)  =   1.000e+00
                    Total carbon (mol/kg)  =   3.630e-05
                       Total CO2 (mol/kg)  =   3.630e-05
                         Temperature (°C)  =  25.00
                  Electrical balance (eq)  =  -1.120e-03
 Percent error, 100*(Cat-|An|)/(Cat+|An|)  = -26.71
                               Iterations  =   4
                                  Total H  = 1.110125e+02
                                  Total O  = 5.551152e+01

----------------------------Distribution of species----------------------------

                                               Log       Log       Log    mole V
   Species          Molality    Activity  Molality  Activity     Gamma   cm³/mol

   OH-             1.061e-07   1.001e-07    -6.974    -7.000    -0.025     (0)  
   H+              1.055e-07   1.000e-07    -6.977    -7.000    -0.023      0.00
   H2O             5.551e+01   9.999e-01     1.744    -0.000     0.000     18.07
C(4)          3.630e-05
   HCO3-           2.980e-05   2.816e-05    -4.526    -4.550    -0.025     (0)  
   CO2             6.328e-06   6.332e-06    -5.199    -5.198     0.000     (0)  
   MgHCO3+         7.778e-08   7.340e-08    -7.109    -7.134    -0.025     (0)  
   CaHCO3+         5.882e-08   5.561e-08    -7.230    -7.255    -0.024     (0)  
   CO3-2           1.657e-08   1.321e-08    -7.781    -7.879    -0.098     (0)  
   NaHCO3          8.443e-09   8.448e-09    -8.074    -8.073     0.000     (0)  
   CaCO3           3.423e-09   3.426e-09    -8.466    -8.465     0.000     (0)  
   MgCO3           2.805e-09   2.807e-09    -8.552    -8.552     0.000     (0)  
   NaCO3-          1.388e-10   1.312e-10    -9.857    -9.882    -0.025     (0)  
Ca            1.996e-04
   Ca+2            1.943e-04   1.548e-04    -3.712    -3.810    -0.099     (0)  
   CaSO4           5.266e-06   5.270e-06    -5.278    -5.278     0.000     (0)  
   CaHCO3+         5.882e-08   5.561e-08    -7.230    -7.255    -0.024     (0)  
   CaCO3           3.423e-09   3.426e-09    -8.466    -8.465     0.000     (0)  
   CaOH+           2.718e-10   2.569e-10    -9.566    -9.590    -0.024     (0)  
   CaHSO4+         3.271e-12   3.087e-12   -11.485   -11.510    -0.025     (0)  
Cl            5.642e-05
   Cl-             5.642e-05   5.322e-05    -4.249    -4.274    -0.025     (0)  
H(0)          1.415e-25
   H2              7.075e-26   7.079e-26   -25.150   -25.150     0.000     (0)  
K             2.558e-05
   K+              2.555e-05   2.410e-05    -4.593    -4.618    -0.025     (0)  
   KSO4-           3.057e-08   2.888e-08    -7.515    -7.539    -0.025     (0)  
Mg            2.879e-04
   Mg+2            2.790e-04   2.227e-04    -3.554    -3.652    -0.098     (0)  
   MgSO4           8.902e-06   8.907e-06    -5.051    -5.050     0.000     (0)  
   MgHCO3+         7.778e-08   7.340e-08    -7.109    -7.134    -0.025     (0)  
   MgOH+           8.550e-09   8.087e-09    -8.068    -8.092    -0.024     (0)  
   MgCO3           2.805e-09   2.807e-09    -8.552    -8.552     0.000     (0)  
N(3)          2.142e-03
   NO2-            2.142e-03   2.022e-03    -2.669    -2.694    -0.025     (0)  
Na            5.655e-04
   Na+             5.650e-04   5.335e-04    -3.248    -3.273    -0.025     (0)  
   NaSO4-          4.827e-07   4.561e-07    -6.316    -6.341    -0.025     (0)  
   NaHCO3          8.443e-09   8.448e-09    -8.074    -8.073     0.000     (0)  
   NaCO3-          1.388e-10   1.312e-10    -9.857    -9.882    -0.025     (0)  
O(0)          0.000e+00
   O2              0.000e+00   0.000e+00   -42.080   -42.080     0.000     (0)  
S(6)          2.290e-04
   SO4-2           2.144e-04   1.706e-04    -3.669    -3.768    -0.099     (0)  
   MgSO4           8.902e-06   8.907e-06    -5.051    -5.050     0.000     (0)  
   CaSO4           5.266e-06   5.270e-06    -5.278    -5.278     0.000     (0)  
   NaSO4-          4.827e-07   4.561e-07    -6.316    -6.341    -0.025     (0)  
   KSO4-           3.057e-08   2.888e-08    -7.515    -7.539    -0.025     (0)  
   HSO4-           1.757e-09   1.659e-09    -8.755    -8.780    -0.025     (0)  
   CaHSO4+         3.271e-12   3.087e-12   -11.485   -11.510    -0.025     (0)  

------------------------------Saturation indices-------------------------------

  Phase               SI** log IAP   log K(298 K,   1 atm)

  Anhydrite        -3.22     -7.58   -4.36  CaSO4
  Aragonite        -3.35    -11.69   -8.34  CaCO3
  Artinite        -10.78     -1.18    9.60  MgCO3:Mg(OH)2:3H2O
  Brucite          -6.49     10.35   16.84  Mg(OH)2
  Calcite          -3.21    -11.69   -8.48  CaCO3
  CO2(g)           -3.73     -5.20   -1.47  CO2
  Dolomite         -6.13    -23.22  -17.09  CaMg(CO3)2
  Dolomite(d)      -6.68    -23.22  -16.54  CaMg(CO3)2
  Epsomite         -5.28     -7.42   -2.14  MgSO4:7H2O
  Gypsum           -3.00     -7.58   -4.58  CaSO4:2H2O
  H2(g)           -22.00    -25.15   -3.15  H2
  H2O(g)           -1.51     -0.00    1.51  H2O
  Halite           -9.13     -7.55    1.58  NaCl
  Huntite         -16.32    -46.28  -29.97  CaMg3(CO3)4
  Hydromagnesite  -27.02    -35.78   -8.76  Mg5(CO3)4(OH)2:4H2O
  Magnesite        -3.50    -11.53   -8.03  MgCO3
  Mirabilite       -9.20    -10.31   -1.11  Na2SO4:10H2O
  Nahcolite        -7.28     -7.82   -0.55  NaHCO3
  Natron          -13.11    -14.43   -1.31  Na2CO3:10H2O
  Nesquehonite     -5.91    -11.53   -5.62  MgCO3:3H2O
  O2(g)           -39.19    -42.08   -2.89  O2
  Portlandite     -12.61     10.19   22.80  Ca(OH)2
  Thenardite      -10.13    -10.31   -0.18  Na2SO4
  Thermonatrite   -14.55    -14.43    0.13  Na2CO3:H2O
  Trona           -21.45    -22.25   -0.80  NaHCO3:Na2CO3:2H2O

**For a gas, SI = log10(fugacity). Fugacity = pressure * phi / 1 atm.
  For ideal gases, phi = 1.

Initial solution 3.	

-----------------------------Solution composition------------------------------

	Elements           Molality       Moles

	Ca                5.490e-04   5.490e-04
	Cl                2.539e-04   2.539e-04
	K                 2.558e-05   2.558e-05
	Mg                1.645e-04   1.645e-04
	N(5)              1.428e-04   1.428e-04
	Na                2.393e-03   2.393e-03
	P                 1.614e-04   1.614e-04
	S(6)              9.370e-05   9.370e-05

----------------------------Description of solution----------------------------

                                       pH  =   7.000    
                                       pe  =   4.000    
                        Activity of water  =   1.000
                 Ionic strength (mol/kgw)  =   3.121e-03
                       Mass of water (kg)  =   1.000e+00
                 Total alkalinity (eq/kg)  =   7.800e-05
                    Total carbon (mol/kg)  =   0.000e+00
                       Total CO2 (mol/kg)  =   0.000e+00
                         Temperature (°C)  =  25.00
                  Electrical balance (eq)  =   3.022e-03
 Percent error, 100*(Cat-|An|)/(Cat+|An|)  =  66.11
                               Iterations  =   9
                                  Total H  = 1.110127e+02
                                  Total O  = 5.550767e+01

----------------------------Distribution of species----------------------------

                                               Log       Log       Log    mole V
   Species          Molality    Activity  Molality  Activity     Gamma   cm³/mol

   OH-             1.065e-07   1.001e-07    -6.973    -7.000    -0.027     (0)  
   H+              1.058e-07   1.000e-07    -6.976    -7.000    -0.024      0.00
   H2O             5.551e+01   9.999e-01     1.744    -0.000     0.000     18.07
Ca            5.490e-04
   Ca+2            5.311e-04   4.181e-04    -3.275    -3.379    -0.104     (0)  
   CaHPO4          1.107e-05   1.108e-05    -4.956    -4.955     0.000     (0)  
   CaSO4           5.593e-06   5.597e-06    -5.252    -5.252     0.000     (0)  
   CaH2PO4+        8.840e-07   8.327e-07    -6.054    -6.079    -0.026     (0)  
   CaPO4-          2.782e-07   2.621e-07    -6.556    -6.581    -0.026     (0)  
   CaOH+           7.361e-10   6.939e-10    -9.133    -9.159    -0.026     (0)  
   CaHSO4+         3.485e-12   3.279e-12   -11.458   -11.484    -0.027     (0)  
Cl            2.539e-04
   Cl-             2.539e-04   2.387e-04    -3.595    -3.622    -0.027     (0)  
H(0)          1.415e-25
   H2              7.074e-26   7.079e-26   -25.150   -25.150     0.000     (0)  
K             2.558e-05
   K+              2.556e-05   2.404e-05    -4.592    -4.619    -0.027     (0)  
   KSO4-           1.203e-08   1.133e-08    -7.920    -7.946    -0.026     (0)  
   KHPO4-          2.404e-09   2.265e-09    -8.619    -8.645    -0.026     (0)  
Mg            1.645e-04
   Mg+2            1.577e-04   1.244e-04    -3.802    -3.905    -0.103     (0)  
   MgHPO4          4.454e-06   4.457e-06    -5.351    -5.351     0.000     (0)  
   MgSO4           1.955e-06   1.957e-06    -5.709    -5.708     0.000     (0)  
   MgH2PO4+        3.350e-07   3.156e-07    -6.475    -6.501    -0.026     (0)  
   MgPO4-          1.117e-07   1.052e-07    -6.952    -6.978    -0.026     (0)  
   MgOH+           4.790e-09   4.517e-09    -8.320    -8.345    -0.025     (0)  
N(5)          1.428e-04
   NO3-            1.428e-04   1.342e-04    -3.845    -3.872    -0.027     (0)  
Na            2.393e-03
   Na+             2.392e-03   2.251e-03    -2.621    -2.648    -0.026     (0)  
   NaSO4-          8.034e-07   7.568e-07    -6.095    -6.121    -0.026     (0)  
   NaHPO4-         2.252e-07   2.121e-07    -6.648    -6.673    -0.026     (0)  
O(0)          0.000e+00
   O2              0.000e+00   0.000e+00   -42.080   -42.080     0.000     (0)  
P             1.614e-04
   H2PO4-          8.262e-05   7.784e-05    -4.083    -4.109    -0.026     (0)  
   HPO4-2          6.146e-05   4.833e-05    -4.211    -4.316    -0.104     (0)  
   CaHPO4          1.107e-05   1.108e-05    -4.956    -4.955     0.000     (0)  
   MgHPO4          4.454e-06   4.457e-06    -5.351    -5.351     0.000     (0)  
   CaH2PO4+        8.840e-07   8.327e-07    -6.054    -6.079    -0.026     (0)  
   MgH2PO4+        3.350e-07   3.156e-07    -6.475    -6.501    -0.026     (0)  
   CaPO4-          2.782e-07   2.621e-07    -6.556    -6.581    -0.026     (0)  
   NaHPO4-         2.252e-07   2.121e-07    -6.648    -6.673    -0.026     (0)  
   MgPO4-          1.117e-07   1.052e-07    -6.952    -6.978    -0.026     (0)  
   KHPO4-          2.404e-09   2.265e-09    -8.619    -8.645    -0.026     (0)  
   PO4-3           3.742e-10   2.179e-10    -9.427    -9.662    -0.235     (0)  
S(6)          9.370e-05
   SO4-2           8.534e-05   6.708e-05    -4.069    -4.173    -0.105     (0)  
   CaSO4           5.593e-06   5.597e-06    -5.252    -5.252     0.000     (0)  
   MgSO4           1.955e-06   1.957e-06    -5.709    -5.708     0.000     (0)  
   NaSO4-          8.034e-07   7.568e-07    -6.095    -6.121    -0.026     (0)  
   KSO4-           1.203e-08   1.133e-08    -7.920    -7.946    -0.026     (0)  
   HSO4-           6.930e-10   6.522e-10    -9.159    -9.186    -0.026     (0)  
   CaHSO4+         3.485e-12   3.279e-12   -11.458   -11.484    -0.027     (0)  

------------------------------Saturation indices-------------------------------

  Phase               SI** log IAP   log K(298 K,   1 atm)

  Anhydrite        -3.19     -7.55   -4.36  CaSO4
  Brucite          -6.75     10.09   16.84  Mg(OH)2
  Epsomite         -5.94     -8.08   -2.14  MgSO4:7H2O
  Gypsum           -2.97     -7.55   -4.58  CaSO4:2H2O
  H2(g)           -22.00    -25.15   -3.15  H2
  H2O(g)           -1.51     -0.00    1.51  H2O
  Halite           -7.85     -6.27    1.58  NaCl
  Hydroxyapatite    1.58     -1.84   -3.42  Ca5(PO4)3OH
  Mirabilite       -8.35     -9.47   -1.11  Na2SO4:10H2O
  O2(g)           -39.19    -42.08   -2.89  O2
  Portlandite     -12.18     10.62   22.80  Ca(OH)2
  Thenardite       -9.29     -9.47   -0.18  Na2SO4

**For a gas, SI = log10(fugacity). Fugacity = pressure * phi / 1 atm.
  For ideal gases, phi = 1.

Initial solution 4.	

-----------------------------Solution composition------------------------------

	Elements           Molality       Moles

	Ca                4.149e-03   4.149e-03
	Cl                3.091e-02   3.091e-02
	Fe                5.381e-05   5.381e-05
	K                 1.332e-03   1.332e-03
	Mg                5.357e-03   5.357e-03
	N(-3)             1.073e-03   1.073e-03
	Na                1.373e-02   1.373e-02
	S(6)              3.129e-05   3.129e-05

----------------------------Description of solution----------------------------

                                       pH  =   7.000    
                                       pe  =   4.000    
                        Activity of water  =   0.999
                 Ionic strength (mol/kgw)  =   4.264e-02
                       Mass of water (kg)  =   1.000e+00
                 Total alkalinity (eq/kg)  =   1.086e-05
                    Total carbon (mol/kg)  =   0.000e+00
                       Total CO2 (mol/kg)  =   0.000e+00
                         Temperature (°C)  =  25.00
                  Electrical balance (eq)  =   4.254e-03
 Percent error, 100*(Cat-|An|)/(Cat+|An|)  =   6.43
                               Iterations  =   4
                                  Total H  = 1.110167e+02
                                  Total O  = 5.550637e+01

----------------------------Distribution of species----------------------------

                                               Log       Log       Log    mole V
   Species          Molality    Activity  Molality  Activity     Gamma   cm³/mol

   OH-             1.217e-07   1.000e-07    -6.915    -7.000    -0.085     (0)  
   H+              1.163e-07   1.000e-07    -6.935    -7.000    -0.065      0.00
   H2O             5.551e+01   9.990e-01     1.744    -0.000     0.000     18.07
Ca            4.149e-03
   Ca+2            4.145e-03   2.042e-03    -2.382    -2.690    -0.308     (0)  
   CaSO4           3.950e-06   3.989e-06    -5.403    -5.399     0.004     (0)  
   CaOH+           4.022e-09   3.385e-09    -8.396    -8.470    -0.075     (0)  
   CaHSO4+         2.815e-12   2.337e-12   -11.551   -11.631    -0.081     (0)  
Cl            3.091e-02
   Cl-             3.091e-02   2.545e-02    -1.510    -1.594    -0.084     (0)  
   FeCl+           8.898e-07   7.424e-07    -6.051    -6.129    -0.079     (0)  
   FeCl+2          3.201e-14   1.551e-14   -13.495   -13.809    -0.315     (0)  
   FeCl2+          2.124e-15   1.763e-15   -14.673   -14.754    -0.081     (0)  
   FeCl3           4.443e-18   4.487e-18   -17.352   -17.348     0.004     (0)  
Fe(2)         4.312e-05
   Fe+2            4.211e-05   2.113e-05    -4.376    -4.675    -0.299     (0)  
   FeCl+           8.898e-07   7.424e-07    -6.051    -6.129    -0.079     (0)  
   FeOH+           8.003e-08   6.677e-08    -7.097    -7.175    -0.079     (0)  
   FeSO4           3.644e-08   3.680e-08    -7.438    -7.434     0.004     (0)  
   Fe(OH)2         5.622e-12   5.678e-12   -11.250   -11.246     0.004     (0)  
   FeHSO4+         2.914e-14   2.419e-14   -13.536   -13.616    -0.081     (0)  
   Fe(OH)3-        2.526e-15   2.107e-15   -14.598   -14.676    -0.079     (0)  
Fe(3)         1.070e-05
   Fe(OH)3         5.489e-06   5.543e-06    -5.261    -5.256     0.004     (0)  
   Fe(OH)2+        5.143e-06   4.307e-06    -5.289    -5.366    -0.077     (0)  
   Fe(OH)4-        6.031e-08   5.050e-08    -7.220    -7.297    -0.077     (0)  
   FeOH+2          2.686e-09   1.302e-09    -8.571    -8.885    -0.315     (0)  
   Fe+3            7.826e-14   2.018e-14   -13.106   -13.695    -0.589     (0)  
   FeCl+2          3.201e-14   1.551e-14   -13.495   -13.809    -0.315     (0)  
   FeSO4+          2.597e-15   2.167e-15   -14.585   -14.664    -0.079     (0)  
   FeCl2+          2.124e-15   1.763e-15   -14.673   -14.754    -0.081     (0)  
   Fe2(OH)2+4      8.942e-16   4.562e-17   -15.049   -16.341    -1.292     (0)  
   FeCl3           4.443e-18   4.487e-18   -17.352   -17.348     0.004     (0)  
   Fe3(OH)4+5      4.290e-18   4.105e-20   -17.368   -19.387    -2.019     (0)  
   Fe(SO4)2-       5.592e-19   4.643e-19   -18.252   -18.333    -0.081     (0)  
   FeHSO4+2        1.221e-21   5.803e-22   -20.913   -21.236    -0.323     (0)  
H(0)          1.402e-25
   H2              7.010e-26   7.079e-26   -25.154   -25.150     0.004     (0)  
K             1.332e-03
   K+              1.332e-03   1.097e-03    -2.875    -2.960    -0.084     (0)  
   KSO4-           9.011e-08   7.546e-08    -7.045    -7.122    -0.077     (0)  
Mg            5.357e-03
   Mg+2            5.350e-03   2.692e-03    -2.272    -2.570    -0.298     (0)  
   MgSO4           6.120e-06   6.180e-06    -5.213    -5.209     0.004     (0)  
   MgOH+           1.156e-07   9.766e-08    -6.937    -7.010    -0.073     (0)  
N(-3)         1.073e-03
   NH4+            1.068e-03   8.865e-04    -2.972    -3.052    -0.081     (0)  
   NH3             5.052e-06   5.052e-06    -5.297    -5.297     0.000     (0)  
   NH4SO4-         1.340e-07   1.118e-07    -6.873    -6.951    -0.079     (0)  
Na            1.373e-02
   Na+             1.373e-02   1.143e-02    -1.862    -1.942    -0.080     (0)  
   NaSO4-          6.697e-07   5.608e-07    -6.174    -6.251    -0.077     (0)  
O(0)          0.000e+00
   O2              0.000e+00   0.000e+00   -42.085   -42.081     0.004     (0)  
S(6)          3.129e-05
   SO4-2           2.028e-05   9.793e-06    -4.693    -5.009    -0.316     (0)  
   MgSO4           6.120e-06   6.180e-06    -5.213    -5.209     0.004     (0)  
   CaSO4           3.950e-06   3.989e-06    -5.403    -5.399     0.004     (0)  
   NaSO4-          6.697e-07   5.608e-07    -6.174    -6.251    -0.077     (0)  
   NH4SO4-         1.340e-07   1.118e-07    -6.873    -6.951    -0.079     (0)  
   KSO4-           9.011e-08   7.546e-08    -7.045    -7.122    -0.077     (0)  
   FeSO4           3.644e-08   3.680e-08    -7.438    -7.434     0.004     (0)  
   HSO4-           1.146e-10   9.521e-11    -9.941   -10.021    -0.081     (0)  
   CaHSO4+         2.815e-12   2.337e-12   -11.551   -11.631    -0.081     (0)  
   FeHSO4+         2.914e-14   2.419e-14   -13.536   -13.616    -0.081     (0)  
   FeSO4+          2.597e-15   2.167e-15   -14.585   -14.664    -0.079     (0)  
   Fe(SO4)2-       5.592e-19   4.643e-19   -18.252   -18.333    -0.081     (0)  
   FeHSO4+2        1.221e-21   5.803e-22   -20.913   -21.236    -0.323     (0)  

------------------------------Saturation indices-------------------------------

  Phase               SI** log IAP   log K(298 K,   1 atm)

  Anhydrite        -3.34     -7.70   -4.36  CaSO4
  Brucite          -5.41     11.43   16.84  Mg(OH)2
  Epsomite         -5.44     -7.58   -2.14  MgSO4:7H2O
  Fe(OH)2.7Cl.3     7.77      4.73   -3.04  Fe(OH)2.7Cl0.3
  Fe(OH)3(a)        2.41      7.30    4.89  Fe(OH)3
  Fe3(OH)8          3.71     23.93   20.22  Fe3(OH)8
  Goethite          8.30      7.30   -1.00  FeOOH
  Gypsum           -3.12     -7.70   -4.58  CaSO4:2H2O
  H2(g)           -22.00    -25.15   -3.15  H2
  H2O(g)           -1.51     -0.00    1.51  H2O
  Halite           -5.12     -3.54    1.58  NaCl
  Hematite         18.62     14.61   -4.01  Fe2O3
  Jarosite(ss)     -3.01    -12.84   -9.83  (K0.77Na0.03H0.2)Fe3(SO4)2(OH)6
  Jarosite-K       -2.86    -12.07   -9.21  KFe3(SO4)2(OH)6
  Jarosite-Na      -5.77    -11.05   -5.28  NaFe3(SO4)2(OH)6
  JarositeH       -10.72    -16.11   -5.39  (H3O)Fe3(SO4)2(OH)6
  Maghemite         8.22     14.61    6.39  Fe2O3
  Magnetite        20.20     23.93    3.74  Fe3O4
  Melanterite      -7.48     -9.69   -2.21  FeSO4:7H2O
  Mirabilite       -7.78     -8.90   -1.11  Na2SO4:10H2O
  NH3(g)           -7.07     -5.30    1.77  NH3
  O2(g)           -39.19    -42.08   -2.89  O2
  Portlandite     -11.49     11.31   22.80  Ca(OH)2
  Thenardite       -8.71     -8.89   -0.18  Na2SO4

**For a gas, SI = log10(fugacity). Fugacity = pressure * phi / 1 atm.
  For ideal gases, phi = 1.

Initial solution 5.	

-----------------------------Solution composition------------------------------

	Elements           Molality       Moles

	Ca                2.795e-03   2.795e-03
	Cl                4.514e-04   4.514e-04
	Fe                1.075e-04   1.075e-04
	K                 1.023e-04   1.023e-04
	Mg                4.937e-04   4.937e-04
	Na                6.526e-04   6.526e-04
	S(6)              1.458e-04   1.458e-04

----------------------------Description of solution----------------------------

                                       pH  =   7.000    
                                       pe  =   4.000    
                        Activity of water  =   1.000
                 Ionic strength (mol/kgw)  =   7.492e-03
                       Mass of water (kg)  =   1.000e+00
                 Total alkalinity (eq/kg)  =   1.518e-05
                    Total carbon (mol/kg)  =   0.000e+00
                       Total CO2 (mol/kg)  =   0.000e+00
                         Temperature (°C)  =  25.00
                  Electrical balance (eq)  =   6.762e-03
 Percent error, 100*(Cat-|An|)/(Cat+|An|)  =  83.46
                               Iterations  =   4
                                  Total H  = 1.110125e+02
                                  Total O  = 5.550687e+01

----------------------------Distribution of species----------------------------

                                               Log       Log       Log    mole V
   Species          Molality    Activity  Molality  Activity     Gamma   cm³/mol

   OH-             1.098e-07   1.001e-07    -6.959    -7.000    -0.040     (0)  
   H+              1.084e-07   1.000e-07    -6.965    -7.000    -0.035      0.00
   H2O             5.551e+01   9.999e-01     1.744    -0.000     0.000     18.07
Ca            2.795e-03
   Ca+2            2.765e-03   1.943e-03    -2.558    -2.712    -0.153     (0)  
   CaSO4           2.953e-05   2.958e-05    -4.530    -4.529     0.001     (0)  
   CaOH+           3.516e-09   3.224e-09    -8.454    -8.492    -0.038     (0)  
   CaHSO4+         1.898e-11   1.733e-11   -10.722   -10.761    -0.039     (0)  
Cl            4.514e-04
   Cl-             4.513e-04   4.116e-04    -3.345    -3.386    -0.040     (0)  
   FeCl+           3.474e-08   3.178e-08    -7.459    -7.498    -0.039     (0)  
   FeCl+2          9.479e-16   6.640e-16   -15.023   -15.178    -0.155     (0)  
   FeCl2+          1.337e-18   1.221e-18   -17.874   -17.913    -0.039     (0)  
   FeCl3           5.016e-23   5.025e-23   -22.300   -22.299     0.001     (0)  
Fe(2)         8.015e-05
   Fe+2            7.916e-05   5.593e-05    -4.101    -4.252    -0.151     (0)  
   FeSO4           7.578e-07   7.591e-07    -6.120    -6.120     0.001     (0)  
   FeOH+           1.933e-07   1.769e-07    -6.714    -6.752    -0.039     (0)  
   FeCl+           3.474e-08   3.178e-08    -7.459    -7.498    -0.039     (0)  
   Fe(OH)2         1.503e-11   1.505e-11   -10.823   -10.822     0.001     (0)  
   FeHSO4+         5.465e-13   4.990e-13   -12.262   -12.302    -0.039     (0)  
   Fe(OH)3-        6.113e-15   5.592e-15   -14.214   -14.252    -0.039     (0)  
Fe(3)         2.731e-05
   Fe(OH)3         1.468e-05   1.471e-05    -4.833    -4.832     0.001     (0)  
   Fe(OH)2+        1.247e-05   1.142e-05    -4.904    -4.942    -0.038     (0)  
   Fe(OH)4-        1.465e-07   1.341e-07    -6.834    -6.872    -0.038     (0)  
   FeOH+2          4.923e-09   3.449e-09    -8.308    -8.462    -0.155     (0)  
   Fe+3            1.107e-13   5.342e-14   -12.956   -13.272    -0.316     (0)  
   FeSO4+          4.886e-14   4.470e-14   -13.311   -13.350    -0.039     (0)  
   Fe2(OH)2+4      1.371e-15   3.201e-16   -14.863   -15.495    -0.632     (0)  
   FeCl+2          9.479e-16   6.640e-16   -15.023   -15.178    -0.155     (0)  
   Fe(SO4)2-       8.174e-17   7.463e-17   -16.088   -16.127    -0.039     (0)  
   Fe3(OH)4+5      7.413e-18   7.637e-19   -17.130   -18.117    -0.987     (0)  
   FeCl2+          1.337e-18   1.221e-18   -17.874   -17.913    -0.039     (0)  
   FeHSO4+2        1.722e-20   1.197e-20   -19.764   -19.922    -0.158     (0)  
   FeCl3           5.016e-23   5.025e-23   -22.300   -22.299     0.001     (0)  
H(0)          1.413e-25
   H2              7.067e-26   7.079e-26   -25.151   -25.150     0.001     (0)  
K             1.023e-04
   K+              1.023e-04   9.325e-05    -3.990    -4.030    -0.040     (0)  
   KSO4-           5.461e-08   5.001e-08    -7.263    -7.301    -0.038     (0)  
Mg            4.937e-04
   Mg+2            4.875e-04   3.442e-04    -3.312    -3.463    -0.151     (0)  
   MgSO4           6.147e-06   6.158e-06    -5.211    -5.211     0.001     (0)  
   MgOH+           1.361e-08   1.250e-08    -7.866    -7.903    -0.037     (0)  
Na            6.526e-04
   Na+             6.523e-04   5.962e-04    -3.186    -3.225    -0.039     (0)  
   NaSO4-          2.491e-07   2.280e-07    -6.604    -6.642    -0.038     (0)  
O(0)          0.000e+00
   O2              0.000e+00   0.000e+00   -42.081   -42.080     0.001     (0)  
S(6)          1.458e-04
   SO4-2           1.090e-04   7.632e-05    -3.962    -4.117    -0.155     (0)  
   CaSO4           2.953e-05   2.958e-05    -4.530    -4.529     0.001     (0)  
   MgSO4           6.147e-06   6.158e-06    -5.211    -5.211     0.001     (0)  
   FeSO4           7.578e-07   7.591e-07    -6.120    -6.120     0.001     (0)  
   NaSO4-          2.491e-07   2.280e-07    -6.604    -6.642    -0.038     (0)  
   KSO4-           5.461e-08   5.001e-08    -7.263    -7.301    -0.038     (0)  
   HSO4-           8.120e-10   7.420e-10    -9.090    -9.130    -0.039     (0)  
   CaHSO4+         1.898e-11   1.733e-11   -10.722   -10.761    -0.039     (0)  
   FeHSO4+         5.465e-13   4.990e-13   -12.262   -12.302    -0.039     (0)  
   FeSO4+          4.886e-14   4.470e-14   -13.311   -13.350    -0.039     (0)  
   Fe(SO4)2-       8.174e-17   7.463e-17   -16.088   -16.127    -0.039     (0)  
   FeHSO4+2        1.722e-20   1.197e-20   -19.764   -19.922    -0.158     (0)  

------------------------------Saturation indices-------------------------------

  Phase               SI** log IAP   log K(298 K,   1 atm)

  Anhydrite        -2.47     -6.83   -4.36  CaSO4
  Brucite          -6.30     10.54   16.84  Mg(OH)2
  Epsomite         -5.44     -7.58   -2.14  MgSO4:7H2O
  Fe(OH)2.7Cl.3     7.65      4.61   -3.04  Fe(OH)2.7Cl0.3
  Fe(OH)3(a)        2.84      7.73    4.89  Fe(OH)3
  Fe3(OH)8          4.98     25.20   20.22  Fe3(OH)8
  Goethite          8.73      7.73   -1.00  FeOOH
  Gypsum           -2.25     -6.83   -4.58  CaSO4:2H2O
  H2(g)           -22.00    -25.15   -3.15  H2
  H2O(g)           -1.51     -0.00    1.51  H2O
  Halite           -8.19     -6.61    1.58  NaCl
  Hematite         19.46     15.46   -4.01  Fe2O3
  Jarosite(ss)     -0.82    -10.65   -9.83  (K0.77Na0.03H0.2)Fe3(SO4)2(OH)6
  Jarosite-K       -0.87    -10.08   -9.21  KFe3(SO4)2(OH)6
  Jarosite-Na      -4.00     -9.28   -5.28  NaFe3(SO4)2(OH)6
  JarositeH        -7.66    -13.05   -5.39  (H3O)Fe3(SO4)2(OH)6
  Maghemite         9.07     15.46    6.39  Fe2O3
  Magnetite        21.47     25.20    3.74  Fe3O4
  Melanterite      -6.16     -8.37   -2.21  FeSO4:7H2O
  Mirabilite       -9.45    -10.57   -1.11  Na2SO4:10H2O
  O2(g)           -39.19    -42.08   -2.89  O2
  Portlandite     -11.51     11.29   22.80  Ca(OH)2
  Thenardite      -10.39    -10.57   -0.18  Na2SO4

**For a gas, SI = log10(fugacity). Fugacity = pressure * phi / 1 atm.
  For ideal gases, phi = 1.

Initial solution 6.	

-----------------------------Solution composition------------------------------

	Elements           Molality       Moles

	Ca                1.697e-03   1.697e-03
	Cl                5.531e-03   5.531e-03
	Fe                1.791e-05   1.791e-05
	K                 1.023e-04   1.023e-04
	Mg                5.350e-04   5.350e-04
	N(-3)             7.143e-05   7.143e-05
	Na                7.398e-03   7.398e-03
	S(6)              6.249e-05   6.249e-05

----------------------------Description of solution----------------------------

                                       pH  =   7.000    
                                       pe  =   4.000    
                        Activity of water  =   1.000
                 Ionic strength (mol/kgw)  =   1.113e-02
                       Mass of water (kg)  =   1.000e+00
                 Total alkalinity (eq/kg)  =   2.789e-06
                    Total carbon (mol/kg)  =   0.000e+00
                       Total CO2 (mol/kg)  =   0.000e+00
                         Temperature (°C)  =  25.00
                  Electrical balance (eq)  =   6.409e-03
 Percent error, 100*(Cat-|An|)/(Cat+|An|)  =  36.26
                               Iterations  =   3
                                  Total H  = 1.110127e+02
                                  Total O  = 5.550648e+01

----------------------------Distribution of species----------------------------

                                               Log       Log       Log    mole V
   Species          Molality    Activity  Molality  Activity     Gamma   cm³/mol

   OH-             1.118e-07   1.001e-07    -6.952    -7.000    -0.048     (0)  
   H+              1.099e-07   1.000e-07    -6.959    -7.000    -0.041      0.00
   H2O             5.551e+01   9.997e-01     1.744    -0.000     0.000     18.07
Ca            1.697e-03
   Ca+2            1.690e-03   1.113e-03    -2.772    -2.954    -0.182     (0)  
   CaSO4           7.394e-06   7.413e-06    -5.131    -5.130     0.001     (0)  
   CaOH+           2.045e-09   1.846e-09    -8.689    -8.734    -0.045     (0)  
   CaHSO4+         4.839e-12   4.343e-12   -11.315   -11.362    -0.047     (0)  
Cl            5.531e-03
   Cl-             5.531e-03   4.954e-03    -2.257    -2.305    -0.048     (0)  
   FeCl+           6.755e-08   6.078e-08    -7.170    -7.216    -0.046     (0)  
   FeCl+2          1.937e-15   1.270e-15   -14.713   -14.896    -0.183     (0)  
   FeCl2+          3.131e-17   2.810e-17   -16.504   -16.551    -0.047     (0)  
   FeCl3           1.389e-20   1.392e-20   -19.857   -19.856     0.001     (0)  
Fe(2)         1.355e-05
   Fe+2            1.340e-05   8.888e-06    -4.873    -5.051    -0.178     (0)  
   FeCl+           6.755e-08   6.078e-08    -7.170    -7.216    -0.046     (0)  
   FeSO4           5.265e-08   5.278e-08    -7.279    -7.278     0.001     (0)  
   FeOH+           3.123e-08   2.810e-08    -7.505    -7.551    -0.046     (0)  
   Fe(OH)2         2.385e-12   2.391e-12   -11.623   -11.621     0.001     (0)  
   FeHSO4+         3.866e-14   3.469e-14   -13.413   -13.460    -0.047     (0)  
   Fe(OH)3-        9.870e-16   8.881e-16   -15.006   -15.052    -0.046     (0)  
Fe(3)         4.368e-06
   Fe(OH)3         2.330e-06   2.336e-06    -5.633    -5.632     0.001     (0)  
   Fe(OH)2+        2.013e-06   1.814e-06    -5.696    -5.741    -0.045     (0)  
   Fe(OH)4-        2.364e-08   2.130e-08    -7.626    -7.672    -0.045     (0)  
   FeOH+2          8.358e-10   5.479e-10    -9.078    -9.261    -0.183     (0)  
   Fe+3            1.986e-14   8.488e-15   -13.702   -14.071    -0.369     (0)  
   FeSO4+          3.454e-15   3.108e-15   -14.462   -14.508    -0.046     (0)  
   FeCl+2          1.937e-15   1.270e-15   -14.713   -14.896    -0.183     (0)  
   Fe2(OH)2+4      4.558e-17   8.079e-18   -16.341   -17.093    -0.751     (0)  
   FeCl2+          3.131e-17   2.810e-17   -16.504   -16.551    -0.047     (0)  
   Fe(SO4)2-       2.530e-18   2.271e-18   -17.597   -17.644    -0.047     (0)  
   Fe3(OH)4+5      4.571e-20   3.062e-21   -19.340   -20.514    -1.174     (0)  
   FeCl3           1.389e-20   1.392e-20   -19.857   -19.856     0.001     (0)  
   FeHSO4+2        1.283e-21   8.323e-22   -20.892   -21.080    -0.188     (0)  
H(0)          1.412e-25
   H2              7.061e-26   7.079e-26   -25.151   -25.150     0.001     (0)  
K             1.023e-04
   K+              1.023e-04   9.165e-05    -3.990    -4.038    -0.048     (0)  
   KSO4-           2.387e-08   2.151e-08    -7.622    -7.667    -0.045     (0)  
Mg            5.350e-04
   Mg+2            5.322e-04   3.528e-04    -3.274    -3.452    -0.179     (0)  
   MgSO4           2.755e-06   2.762e-06    -5.560    -5.559     0.001     (0)  
   MgOH+           1.417e-08   1.281e-08    -7.849    -7.893    -0.044     (0)  
N(-3)         7.143e-05
   NH4+            7.103e-05   6.375e-05    -4.149    -4.195    -0.047     (0)  
   NH3             3.633e-07   3.633e-07    -6.440    -6.440     0.000     (0)  
   NH4SO4-         3.048e-08   2.743e-08    -7.516    -7.562    -0.046     (0)  
Na            7.398e-03
   Na+             7.397e-03   6.647e-03    -2.131    -2.177    -0.046     (0)  
   NaSO4-          1.235e-06   1.113e-06    -5.908    -5.954    -0.045     (0)  
O(0)          0.000e+00
   O2              0.000e+00   0.000e+00   -42.081   -42.080     0.001     (0)  
S(6)          6.249e-05
   SO4-2           5.100e-05   3.340e-05    -4.292    -4.476    -0.184     (0)  
   CaSO4           7.394e-06   7.413e-06    -5.131    -5.130     0.001     (0)  
   MgSO4           2.755e-06   2.762e-06    -5.560    -5.559     0.001     (0)  
   NaSO4-          1.235e-06   1.113e-06    -5.908    -5.954    -0.045     (0)  
   FeSO4           5.265e-08   5.278e-08    -7.279    -7.278     0.001     (0)  
   NH4SO4-         3.048e-08   2.743e-08    -7.516    -7.562    -0.046     (0)  
   KSO4-           2.387e-08   2.151e-08    -7.622    -7.667    -0.045     (0)  
   HSO4-           3.614e-10   3.247e-10    -9.442    -9.489    -0.047     (0)  
   CaHSO4+         4.839e-12   4.343e-12   -11.315   -11.362    -0.047     (0)  
   FeHSO4+         3.866e-14   3.469e-14   -13.413   -13.460    -0.047     (0)  
   FeSO4+          3.454e-15   3.108e-15   -14.462   -14.508    -0.046     (0)  
   Fe(SO4)2-       2.530e-18   2.271e-18   -17.597   -17.644    -0.047     (0)  
   FeHSO4+2        1.283e-21   8.323e-22   -20.892   -21.080    -0.188     (0)  

------------------------------Saturation indices-------------------------------

  Phase               SI** log IAP   log K(298 K,   1 atm)

  Anhydrite        -3.07     -7.43   -4.36  CaSO4
  Brucite          -6.29     10.55   16.84  Mg(OH)2
  Epsomite         -5.79     -7.93   -2.14  MgSO4:7H2O
  Fe(OH)2.7Cl.3     7.18      4.14   -3.04  Fe(OH)2.7Cl0.3
  Fe(OH)3(a)        2.04      6.93    4.89  Fe(OH)3
  Fe3(OH)8          2.58     22.81   20.22  Fe3(OH)8
  Goethite          7.93      6.93   -1.00  FeOOH
  Gypsum           -2.85     -7.43   -4.58  CaSO4:2H2O
  H2(g)           -22.00    -25.15   -3.15  H2
  H2O(g)           -1.51     -0.00    1.51  H2O
  Halite           -6.06     -4.48    1.58  NaCl
  Hematite         17.87     13.86   -4.01  Fe2O3
  Jarosite(ss)     -3.91    -13.74   -9.83  (K0.77Na0.03H0.2)Fe3(SO4)2(OH)6
  Jarosite-K       -3.99    -13.20   -9.21  KFe3(SO4)2(OH)6
  Jarosite-Na      -6.06    -11.34   -5.28  NaFe3(SO4)2(OH)6
  JarositeH       -10.78    -16.17   -5.39  (H3O)Fe3(SO4)2(OH)6
  Maghemite         7.47     13.86    6.39  Fe2O3
  Magnetite        19.07     22.81    3.74  Fe3O4
  Melanterite      -7.32     -9.53   -2.21  FeSO4:7H2O
  Mirabilite       -7.72     -8.83   -1.11  Na2SO4:10H2O
  NH3(g)           -8.21     -6.44    1.77  NH3
  O2(g)           -39.19    -42.08   -2.89  O2
  Portlandite     -11.75     11.05   22.80  Ca(OH)2
  Thenardite       -8.65     -8.83   -0.18  Na2SO4

**For a gas, SI = log10(fugacity). Fugacity = pressure * phi / 1 atm.
  For ideal gases, phi = 1.

Initial solution 7.	

-----------------------------Solution composition------------------------------

	Elements           Molality       Moles

	Ca                2.346e-03   2.346e-03
	Cl                7.335e-04   7.335e-04
	Fe                1.254e-04   1.254e-04
	K                 2.558e-05   2.558e-05
	Mg                2.880e-04   2.880e-04
	Na                3.915e-04   3.915e-04
	P                 3.229e-05   3.229e-05
	S(6)              4.165e-05   4.165e-05

----------------------------Description of solution----------------------------

                                       pH  =   7.000    
                                       pe  =   4.000    
                        Activity of water  =   1.000
                 Ionic strength (mol/kgw)  =   6.087e-03
                       Mass of water (kg)  =   1.000e+00
                 Total alkalinity (eq/kg)  =   3.721e-05
                    Total carbon (mol/kg)  =   0.000e+00
                       Total CO2 (mol/kg)  =   0.000e+00
                         Temperature (°C)  =  25.00
                  Electrical balance (eq)  =   5.017e-03
 Percent error, 100*(Cat-|An|)/(Cat+|An|)  =  75.14
                               Iterations  =  11
                                  Total H  = 1.110126e+02
                                  Total O  = 5.550659e+01

----------------------------Distribution of species----------------------------

                                               Log       Log       Log    mole V
   Species          Molality    Activity  Molality  Activity     Gamma   cm³/mol

   OH-             1.089e-07   1.001e-07    -6.963    -7.000    -0.037     (0)  
   H+              1.077e-07   1.000e-07    -6.968    -7.000    -0.032      0.00
   H2O             5.551e+01   9.999e-01     1.744    -0.000     0.000     18.07
Ca            2.346e-03
   Ca+2            2.331e-03   1.688e-03    -2.633    -2.773    -0.140     (0)  
   CaSO4           7.854e-06   7.865e-06    -5.105    -5.104     0.001     (0)  
   CaHPO4          6.428e-06   6.437e-06    -5.192    -5.191     0.001     (0)  
   CaH2PO4+        5.244e-07   4.838e-07    -6.280    -6.315    -0.035     (0)  
   CaPO4-          1.651e-07   1.523e-07    -6.782    -6.817    -0.035     (0)  
   CaOH+           3.033e-09   2.801e-09    -8.518    -8.553    -0.034     (0)  
   CaHSO4+         5.006e-12   4.608e-12   -11.301   -11.337    -0.036     (0)  
Cl            7.335e-04
   Cl-             7.334e-04   6.744e-04    -3.135    -3.171    -0.036     (0)  
   FeCl+           6.652e-08   6.133e-08    -7.177    -7.212    -0.035     (0)  
   FeCl+2          1.773e-15   1.281e-15   -14.751   -14.892    -0.141     (0)  
   FeCl2+          4.194e-18   3.860e-18   -17.377   -17.413    -0.036     (0)  
   FeCl3           2.600e-22   2.603e-22   -21.585   -21.584     0.001     (0)  
Fe(2)         9.331e-05
   Fe+2            9.052e-05   6.588e-05    -4.043    -4.181    -0.138     (0)  
   FeHPO4          1.822e-06   1.824e-06    -5.740    -5.739     0.001     (0)  
   FeH2PO4+        4.009e-07   3.699e-07    -6.397    -6.432    -0.035     (0)  
   FeSO4           2.732e-07   2.736e-07    -6.564    -6.563     0.001     (0)  
   FeOH+           2.260e-07   2.083e-07    -6.646    -6.681    -0.035     (0)  
   FeCl+           6.652e-08   6.133e-08    -7.177    -7.212    -0.035     (0)  
   Fe(OH)2         1.771e-11   1.773e-11   -10.752   -10.751     0.001     (0)  
   FeHSO4+         1.954e-13   1.798e-13   -12.709   -12.745    -0.036     (0)  
   Fe(OH)3-        7.144e-15   6.587e-15   -14.146   -14.181    -0.035     (0)  
Fe(3)         3.206e-05
   Fe(OH)3         1.730e-05   1.733e-05    -4.762    -4.761     0.001     (0)  
   Fe(OH)2+        1.458e-05   1.345e-05    -4.836    -4.871    -0.035     (0)  
   Fe(OH)4-        1.712e-07   1.580e-07    -6.766    -6.801    -0.035     (0)  
   FeOH+2          5.621e-09   4.062e-09    -8.250    -8.391    -0.141     (0)  
   FeH2PO4+2       2.617e-13   1.897e-13   -12.582   -12.722    -0.140     (0)  
   FeHPO4+         1.276e-13   1.178e-13   -12.894   -12.929    -0.035     (0)  
   Fe+3            1.230e-13   6.292e-14   -12.910   -13.201    -0.291     (0)  
   FeSO4+          1.747e-14   1.611e-14   -13.758   -13.793    -0.035     (0)  
   FeCl+2          1.773e-15   1.281e-15   -14.751   -14.892    -0.141     (0)  
   Fe2(OH)2+4      1.672e-15   4.441e-16   -14.777   -15.353    -0.576     (0)  
   Fe3(OH)4+5      9.902e-18   1.248e-18   -17.004   -17.904    -0.900     (0)  
   Fe(SO4)2-       8.941e-18   8.230e-18   -17.049   -17.085    -0.036     (0)  
   FeCl2+          4.194e-18   3.860e-18   -17.377   -17.413    -0.036     (0)  
   FeHSO4+2        6.009e-21   4.314e-21   -20.221   -20.365    -0.144     (0)  
   FeCl3           2.600e-22   2.603e-22   -21.585   -21.584     0.001     (0)  
H(0)          1.414e-25
   H2              7.070e-26   7.079e-26   -25.151   -25.150     0.001     (0)  
K             2.558e-05
   K+              2.557e-05   2.352e-05    -4.592    -4.629    -0.036     (0)  
   KSO4-           4.182e-09   3.858e-09    -8.379    -8.414    -0.035     (0)  
   KHPO4-          3.456e-10   3.189e-10    -9.461    -9.496    -0.035     (0)  
Mg            2.880e-04
   Mg+2            2.856e-04   2.077e-04    -3.544    -3.682    -0.138     (0)  
   MgSO4           1.136e-06   1.137e-06    -5.945    -5.944     0.001     (0)  
   MgHPO4          1.070e-06   1.071e-06    -5.971    -5.970     0.001     (0)  
   MgH2PO4+        8.218e-08   7.583e-08    -7.085    -7.120    -0.035     (0)  
   MgPO4-          2.740e-08   2.528e-08    -7.562    -7.597    -0.035     (0)  
   MgOH+           8.159e-09   7.542e-09    -8.088    -8.122    -0.034     (0)  
Na            3.915e-04
   Na+             3.915e-04   3.606e-04    -3.407    -3.443    -0.036     (0)  
   NaSO4-          4.575e-08   4.221e-08    -7.340    -7.375    -0.035     (0)  
   NaHPO4-         5.301e-09   4.891e-09    -8.276    -8.311    -0.035     (0)  
O(0)          0.000e+00
   O2              0.000e+00   0.000e+00   -42.081   -42.080     0.001     (0)  
P             3.229e-05
   H2PO4-          1.214e-05   1.120e-05    -4.916    -4.951    -0.035     (0)  
   HPO4-2          9.625e-06   6.955e-06    -5.017    -5.158    -0.141     (0)  
   CaHPO4          6.428e-06   6.437e-06    -5.192    -5.191     0.001     (0)  
   FeHPO4          1.822e-06   1.824e-06    -5.740    -5.739     0.001     (0)  
   MgHPO4          1.070e-06   1.071e-06    -5.971    -5.970     0.001     (0)  
   CaH2PO4+        5.244e-07   4.838e-07    -6.280    -6.315    -0.035     (0)  
   FeH2PO4+        4.009e-07   3.699e-07    -6.397    -6.432    -0.035     (0)  
   CaPO4-          1.651e-07   1.523e-07    -6.782    -6.817    -0.035     (0)  
   MgH2PO4+        8.218e-08   7.583e-08    -7.085    -7.120    -0.035     (0)  
   MgPO4-          2.740e-08   2.528e-08    -7.562    -7.597    -0.035     (0)  
   NaHPO4-         5.301e-09   4.891e-09    -8.276    -8.311    -0.035     (0)  
   KHPO4-          3.456e-10   3.189e-10    -9.461    -9.496    -0.035     (0)  
   PO4-3           6.512e-11   3.135e-11   -10.186   -10.504    -0.317     (0)  
   FeH2PO4+2       2.617e-13   1.897e-13   -12.582   -12.722    -0.140     (0)  
   FeHPO4+         1.276e-13   1.178e-13   -12.894   -12.929    -0.035     (0)  
S(6)          4.165e-05
   SO4-2           3.233e-05   2.335e-05    -4.490    -4.632    -0.141     (0)  
   CaSO4           7.854e-06   7.865e-06    -5.105    -5.104     0.001     (0)  
   MgSO4           1.136e-06   1.137e-06    -5.945    -5.944     0.001     (0)  
   FeSO4           2.732e-07   2.736e-07    -6.564    -6.563     0.001     (0)  
   NaSO4-          4.575e-08   4.221e-08    -7.340    -7.375    -0.035     (0)  
   KSO4-           4.182e-09   3.858e-09    -8.379    -8.414    -0.035     (0)  
   HSO4-           2.465e-10   2.270e-10    -9.608    -9.644    -0.036     (0)  
   CaHSO4+         5.006e-12   4.608e-12   -11.301   -11.337    -0.036     (0)  
   FeHSO4+         1.954e-13   1.798e-13   -12.709   -12.745    -0.036     (0)  
   FeSO4+          1.747e-14   1.611e-14   -13.758   -13.793    -0.035     (0)  
   Fe(SO4)2-       8.941e-18   8.230e-18   -17.049   -17.085    -0.036     (0)  
   FeHSO4+2        6.009e-21   4.314e-21   -20.221   -20.365    -0.144     (0)  

------------------------------Saturation indices-------------------------------

  Phase               SI** log IAP   log K(298 K,   1 atm)

  Anhydrite        -3.04     -7.40   -4.36  CaSO4
  Brucite          -6.52     10.32   16.84  Mg(OH)2
  Epsomite         -6.17     -8.31   -2.14  MgSO4:7H2O
  Fe(OH)2.7Cl.3     7.79      4.75   -3.04  Fe(OH)2.7Cl0.3
  Fe(OH)3(a)        2.91      7.80    4.89  Fe(OH)3
  Fe3(OH)8          5.19     25.42   20.22  Fe3(OH)8
  Goethite          8.80      7.80   -1.00  FeOOH
  Gypsum           -2.82     -7.40   -4.58  CaSO4:2H2O
  H2(g)           -22.00    -25.15   -3.15  H2
  H2O(g)           -1.51     -0.00    1.51  H2O
  Halite           -8.20     -6.61    1.58  NaCl
  Hematite         19.61     15.60   -4.01  Fe2O3
  Hydroxyapatite    2.08     -1.34   -3.42  Ca5(PO4)3OH
  Jarosite(ss)     -2.10    -11.93   -9.83  (K0.77Na0.03H0.2)Fe3(SO4)2(OH)6
  Jarosite-K       -2.29    -11.50   -9.21  KFe3(SO4)2(OH)6
  Jarosite-Na      -5.03    -10.31   -5.28  NaFe3(SO4)2(OH)6
  JarositeH        -8.48    -13.87   -5.39  (H3O)Fe3(SO4)2(OH)6
  Maghemite         9.21     15.60    6.39  Fe2O3
  Magnetite        21.68     25.42    3.74  Fe3O4
  Melanterite      -6.60     -8.81   -2.21  FeSO4:7H2O
  Mirabilite      -10.40    -11.52   -1.11  Na2SO4:10H2O
  O2(g)           -39.19    -42.08   -2.89  O2
  Portlandite     -11.57     11.23   22.80  Ca(OH)2
  Strengite         2.70    -23.70  -26.40  FePO4:2H2O
  Thenardite      -11.34    -11.52   -0.18  Na2SO4
  Vivianite         2.45    -33.55  -36.00  Fe3(PO4)2:8H2O

**For a gas, SI = log10(fugacity). Fugacity = pressure * phi / 1 atm.
  For ideal gases, phi = 1.

Initial solution 8.	

-----------------------------Solution composition------------------------------

	Elements           Molality       Moles

	Ca                1.548e-03   1.548e-03
	Cl                5.898e-03   5.898e-03
	Fe                1.792e-05   1.792e-05
	K                 1.791e-04   1.791e-04
	Mg                8.642e-04   8.642e-04
	N(-3)             7.143e-05   7.143e-05
	N(5)              1.429e-04   1.429e-04
	Na                8.704e-03   8.704e-03
	S(6)              1.771e-04   1.771e-04

----------------------------Description of solution----------------------------

                                       pH  =   7.000    
                                       pe  =   4.000    
                        Activity of water  =   1.000
                 Ionic strength (mol/kgw)  =   1.258e-02
                       Mass of water (kg)  =   1.000e+00
                 Total alkalinity (eq/kg)  =   2.742e-06
                    Total carbon (mol/kg)  =   0.000e+00
                       Total CO2 (mol/kg)  =   0.000e+00
                         Temperature (°C)  =  25.00
                  Electrical balance (eq)  =   7.412e-03
 Percent error, 100*(Cat-|An|)/(Cat+|An|)  =  36.92
                               Iterations  =   3
                                  Total H  = 1.110127e+02
                                  Total O  = 5.550736e+01

---------------------------------Redox couples---------------------------------

	Redox couple             pe  Eh (volts)

	N(-3)/N(5)           6.1724      0.3651

----------------------------Distribution of species----------------------------

                                               Log       Log       Log    mole V
   Species          Molality    Activity  Molality  Activity     Gamma   cm³/mol

   OH-             1.125e-07   1.001e-07    -6.949    -7.000    -0.051     (0)  
   H+              1.104e-07   1.000e-07    -6.957    -7.000    -0.043      0.00
   H2O             5.551e+01   9.997e-01     1.744    -0.000     0.000     18.07
Ca            1.548e-03
   Ca+2            1.530e-03   9.852e-04    -2.815    -3.006    -0.191     (0)  
   CaSO4           1.794e-05   1.799e-05    -4.746    -4.745     0.001     (0)  
   CaOH+           1.821e-09   1.634e-09    -8.740    -8.787    -0.047     (0)  
   CaHSO4+         1.181e-11   1.054e-11   -10.928   -10.977    -0.050     (0)  
Cl            5.898e-03
   Cl-             5.898e-03   5.251e-03    -2.229    -2.280    -0.050     (0)  
   FeCl+           7.046e-08   6.304e-08    -7.152    -7.200    -0.048     (0)  
   FeCl+2          2.055e-15   1.317e-15   -14.687   -14.880    -0.193     (0)  
   FeCl2+          3.462e-17   3.089e-17   -16.461   -16.510    -0.050     (0)  
   FeCl3           1.618e-20   1.622e-20   -19.791   -19.790     0.001     (0)  
Fe(2)         1.363e-05
   Fe+2            1.339e-05   8.697e-06    -4.873    -5.061    -0.187     (0)  
   FeSO4           1.411e-07   1.416e-07    -6.850    -6.849     0.001     (0)  
   FeCl+           7.046e-08   6.304e-08    -7.152    -7.200    -0.048     (0)  
   FeOH+           3.073e-08   2.750e-08    -7.512    -7.561    -0.048     (0)  
   Fe(OH)2         2.333e-12   2.340e-12   -11.632   -11.631     0.001     (0)  
   FeHSO4+         1.043e-13   9.305e-14   -12.982   -13.031    -0.050     (0)  
   Fe(OH)3-        9.712e-16   8.690e-16   -15.013   -15.061    -0.048     (0)  
Fe(3)         4.284e-06
   Fe(OH)3         2.279e-06   2.286e-06    -5.642    -5.641     0.001     (0)  
   Fe(OH)2+        1.981e-06   1.775e-06    -5.703    -5.751    -0.048     (0)  
   Fe(OH)4-        2.326e-08   2.084e-08    -7.633    -7.681    -0.048     (0)  
   FeOH+2          8.365e-10   5.361e-10    -9.078    -9.271    -0.193     (0)  
   Fe+3            2.023e-14   8.306e-15   -13.694   -14.081    -0.387     (0)  
   FeSO4+          9.316e-15   8.335e-15   -14.031   -14.079    -0.048     (0)  
   FeCl+2          2.055e-15   1.317e-15   -14.687   -14.880    -0.193     (0)  
   Fe2(OH)2+4      4.793e-17   7.736e-18   -16.319   -17.111    -0.792     (0)  
   FeCl2+          3.462e-17   3.089e-17   -16.461   -16.510    -0.050     (0)  
   Fe(SO4)2-       1.871e-17   1.669e-17   -16.728   -16.778    -0.050     (0)  
   Fe3(OH)4+5      4.957e-20   2.868e-21   -19.305   -20.542    -1.238     (0)  
   FeCl3           1.618e-20   1.622e-20   -19.791   -19.790     0.001     (0)  
   FeHSO4+2        3.521e-21   2.232e-21   -20.453   -20.651    -0.198     (0)  
H(0)          1.412e-25
   H2              7.059e-26   7.079e-26   -25.151   -25.150     0.001     (0)  
K             1.791e-04
   K+              1.790e-04   1.594e-04    -3.747    -3.798    -0.050     (0)  
   KSO4-           1.144e-07   1.025e-07    -6.942    -6.989    -0.048     (0)  
Mg            8.642e-04
   Mg+2            8.524e-04   5.532e-04    -3.069    -3.257    -0.188     (0)  
   MgSO4           1.184e-05   1.187e-05    -4.927    -4.926     0.001     (0)  
   MgOH+           2.233e-08   2.008e-08    -7.651    -7.697    -0.046     (0)  
N(-3)         7.143e-05
   NH4+            7.099e-05   6.334e-05    -4.149    -4.198    -0.050     (0)  
   NH3             3.610e-07   3.610e-07    -6.443    -6.443     0.000     (0)  
   NH4SO4-         8.347e-08   7.468e-08    -7.078    -7.127    -0.048     (0)  
N(5)          1.429e-04
   NO3-            1.429e-04   1.269e-04    -3.845    -3.897    -0.052     (0)  
Na            8.704e-03
   Na+             8.700e-03   7.773e-03    -2.060    -2.109    -0.049     (0)  
   NaSO4-          3.980e-06   3.566e-06    -5.400    -5.448    -0.048     (0)  
O(0)          0.000e+00
   O2              0.000e+00   0.000e+00   -42.082   -42.080     0.001     (0)  
S(6)          1.771e-04
   SO4-2           1.430e-04   9.153e-05    -3.845    -4.038    -0.194     (0)  
   CaSO4           1.794e-05   1.799e-05    -4.746    -4.745     0.001     (0)  
   MgSO4           1.184e-05   1.187e-05    -4.927    -4.926     0.001     (0)  
   NaSO4-          3.980e-06   3.566e-06    -5.400    -5.448    -0.048     (0)  
   FeSO4           1.411e-07   1.416e-07    -6.850    -6.849     0.001     (0)  
   KSO4-           1.144e-07   1.025e-07    -6.942    -6.989    -0.048     (0)  
   NH4SO4-         8.347e-08   7.468e-08    -7.078    -7.127    -0.048     (0)  
   HSO4-           9.963e-10   8.898e-10    -9.002    -9.051    -0.049     (0)  
   CaHSO4+         1.181e-11   1.054e-11   -10.928   -10.977    -0.050     (0)  
   FeHSO4+         1.043e-13   9.305e-14   -12.982   -13.031    -0.050     (0)  
   FeSO4+          9.316e-15   8.335e-15   -14.031   -14.079    -0.048     (0)  
   Fe(SO4)2-       1.871e-17   1.669e-17   -16.728   -16.778    -0.050     (0)  
   FeHSO4+2        3.521e-21   2.232e-21   -20.453   -20.651    -0.198     (0)  

------------------------------Saturation indices-------------------------------

  Phase               SI** log IAP   log K(298 K,   1 atm)

  Anhydrite        -2.68     -7.04   -4.36  CaSO4
  Brucite          -6.10     10.74   16.84  Mg(OH)2
  Epsomite         -5.16     -7.30   -2.14  MgSO4:7H2O
  Fe(OH)2.7Cl.3     7.18      4.14   -3.04  Fe(OH)2.7Cl0.3
  Fe(OH)3(a)        2.03      6.92    4.89  Fe(OH)3
  Fe3(OH)8          2.56     22.78   20.22  Fe3(OH)8
  Goethite          7.92      6.92   -1.00  FeOOH
  Gypsum           -2.46     -7.05   -4.58  CaSO4:2H2O
  H2(g)           -22.00    -25.15   -3.15  H2
  H2O(g)           -1.51     -0.00    1.51  H2O
  Halite           -5.97     -4.39    1.58  NaCl
  Hematite         17.85     13.84   -4.01  Fe2O3
  Jarosite(ss)     -2.88    -12.71   -9.83  (K0.77Na0.03H0.2)Fe3(SO4)2(OH)6
  Jarosite-K       -2.91    -12.12   -9.21  KFe3(SO4)2(OH)6
  Jarosite-Na      -5.15    -10.43   -5.28  NaFe3(SO4)2(OH)6
  JarositeH        -9.93    -15.32   -5.39  (H3O)Fe3(SO4)2(OH)6
  Maghemite         7.45     13.84    6.39  Fe2O3
  Magnetite        19.04     22.78    3.74  Fe3O4
  Melanterite      -6.89     -9.10   -2.21  FeSO4:7H2O
  Mirabilite       -7.14     -8.26   -1.11  Na2SO4:10H2O
  NH3(g)           -8.21     -6.44    1.77  NH3
  O2(g)           -39.19    -42.08   -2.89  O2
  Portlandite     -11.81     10.99   22.80  Ca(OH)2
  Thenardite       -8.08     -8.26   -0.18  Na2SO4

**For a gas, SI = log10(fugacity). Fugacity = pressure * phi / 1 atm.
  For ideal gases, phi = 1.

Initial solution 9.	

-----------------------------Solution composition------------------------------

	Elements           Molality       Moles

	Ca                2.995e-03   2.995e-03
	Cl                7.335e-04   7.335e-04
	Fe                6.268e-04   6.268e-04
	K                 2.558e-05   2.558e-05
	Mg                2.468e-04   2.468e-04
	N(-3)             1.428e-04   1.428e-04
	Na                9.572e-04   9.572e-04
	S(6)              3.124e-05   3.124e-05

----------------------------Description of solution----------------------------

                                       pH  =   7.000    
                                       pe  =   4.000    
                        Activity of water  =   1.000
                 Ionic strength (mol/kgw)  =   8.414e-03
                       Mass of water (kg)  =   1.000e+00
                 Total alkalinity (eq/kg)  =   8.848e-05
                    Total carbon (mol/kg)  =   0.000e+00
                       Total CO2 (mol/kg)  =   0.000e+00
                         Temperature (°C)  =  25.00
                  Electrical balance (eq)  =   7.819e-03
 Percent error, 100*(Cat-|An|)/(Cat+|An|)  =  83.36
                               Iterations  =   4
                                  Total H  = 1.110134e+02
                                  Total O  = 5.550675e+01

----------------------------Distribution of species----------------------------

                                               Log       Log       Log    mole V
   Species          Molality    Activity  Molality  Activity     Gamma   cm³/mol

   OH-             1.103e-07   1.001e-07    -6.957    -7.000    -0.042     (0)  
   H+              1.088e-07   1.000e-07    -6.963    -7.000    -0.037      0.00
   H2O             5.551e+01   9.999e-01     1.744    -0.000     0.000     18.07
Ca            2.995e-03
   Ca+2            2.988e-03   2.061e-03    -2.525    -2.686    -0.161     (0)  
   CaSO4           6.509e-06   6.521e-06    -5.186    -5.186     0.001     (0)  
   CaOH+           3.747e-09   3.421e-09    -8.426    -8.466    -0.040     (0)  
   CaHSO4+         4.204e-12   3.821e-12   -11.376   -11.418    -0.042     (0)  
Cl            7.335e-04
   Cl-             7.332e-04   6.653e-04    -3.135    -3.177    -0.042     (0)  
   FeCl+           3.264e-07   2.972e-07    -6.486    -6.527    -0.041     (0)  
   FeCl+2          9.031e-15   6.210e-15   -14.044   -14.207    -0.163     (0)  
   FeCl2+          2.031e-17   1.846e-17   -16.692   -16.734    -0.042     (0)  
   FeCl3           1.226e-21   1.228e-21   -20.912   -20.911     0.001     (0)  
Fe(2)         4.685e-04
   Fe+2            4.662e-04   3.237e-04    -3.331    -3.490    -0.158     (0)  
   FeOH+           1.124e-06   1.023e-06    -5.949    -5.990    -0.041     (0)  
   FeSO4           9.108e-07   9.126e-07    -6.041    -6.040     0.001     (0)  
   FeCl+           3.264e-07   2.972e-07    -6.486    -6.527    -0.041     (0)  
   Fe(OH)2         8.693e-11   8.709e-11   -10.061   -10.060     0.001     (0)  
   FeHSO4+         6.601e-13   5.998e-13   -12.180   -12.222    -0.042     (0)  
   Fe(OH)3-        3.553e-14   3.236e-14   -13.449   -13.490    -0.041     (0)  
Fe(3)         1.583e-04
   Fe(OH)3         8.494e-05   8.510e-05    -4.071    -4.070     0.001     (0)  
   Fe(OH)2+        7.248e-05   6.607e-05    -4.140    -4.180    -0.040     (0)  
   Fe(OH)4-        8.514e-07   7.761e-07    -6.070    -6.110    -0.040     (0)  
   FeOH+2          2.902e-08   1.995e-08    -7.537    -7.700    -0.163     (0)  
   Fe+3            6.627e-13   3.091e-13   -12.179   -12.510    -0.331     (0)  
   FeSO4+          5.901e-14   5.374e-14   -13.229   -13.270    -0.041     (0)  
   Fe2(OH)2+4      4.956e-14   1.072e-14   -13.305   -13.970    -0.665     (0)  
   FeCl+2          9.031e-15   6.210e-15   -14.044   -14.207    -0.163     (0)  
   Fe3(OH)4+5      1.619e-15   1.479e-16   -14.791   -15.830    -1.039     (0)  
   Fe(SO4)2-       2.051e-17   1.864e-17   -16.688   -16.730    -0.042     (0)  
   FeCl2+          2.031e-17   1.846e-17   -16.692   -16.734    -0.042     (0)  
   FeHSO4+2        2.110e-20   1.439e-20   -19.676   -19.842    -0.166     (0)  
   FeCl3           1.226e-21   1.228e-21   -20.912   -20.911     0.001     (0)  
H(0)          1.413e-25
   H2              7.066e-26   7.079e-26   -25.151   -25.150     0.001     (0)  
K             2.558e-05
   K+              2.558e-05   2.321e-05    -4.592    -4.634    -0.042     (0)  
   KSO4-           2.837e-09   2.586e-09    -8.547    -8.587    -0.040     (0)  
Mg            2.468e-04
   Mg+2            2.462e-04   1.708e-04    -3.609    -3.768    -0.159     (0)  
   MgSO4           6.336e-07   6.348e-07    -6.198    -6.197     0.001     (0)  
   MgOH+           6.785e-09   6.200e-09    -8.168    -8.208    -0.039     (0)  
N(-3)         1.428e-04
   NH4+            1.421e-04   1.291e-04    -3.848    -3.889    -0.042     (0)  
   NH3             7.357e-07   7.357e-07    -6.133    -6.133     0.000     (0)  
   NH4SO4-         2.896e-08   2.637e-08    -7.538    -7.579    -0.041     (0)  
Na            9.572e-04
   Na+             9.571e-04   8.706e-04    -3.019    -3.060    -0.041     (0)  
   NaSO4-          7.590e-08   6.919e-08    -7.120    -7.160    -0.040     (0)  
O(0)          0.000e+00
   O2              0.000e+00   0.000e+00   -42.081   -42.080     0.001     (0)  
S(6)          3.124e-05
   SO4-2           2.308e-05   1.586e-05    -4.637    -4.800    -0.163     (0)  
   CaSO4           6.509e-06   6.521e-06    -5.186    -5.186     0.001     (0)  
   FeSO4           9.108e-07   9.126e-07    -6.041    -6.040     0.001     (0)  
   MgSO4           6.336e-07   6.348e-07    -6.198    -6.197     0.001     (0)  
   NaSO4-          7.590e-08   6.919e-08    -7.120    -7.160    -0.040     (0)  
   NH4SO4-         2.896e-08   2.637e-08    -7.538    -7.579    -0.041     (0)  
   KSO4-           2.837e-09   2.586e-09    -8.547    -8.587    -0.040     (0)  
   HSO4-           1.695e-10   1.542e-10    -9.771    -9.812    -0.041     (0)  
   CaHSO4+         4.204e-12   3.821e-12   -11.376   -11.418    -0.042     (0)  
   FeHSO4+         6.601e-13   5.998e-13   -12.180   -12.222    -0.042     (0)  
   FeSO4+          5.901e-14   5.374e-14   -13.229   -13.270    -0.041     (0)  
   Fe(SO4)2-       2.051e-17   1.864e-17   -16.688   -16.730    -0.042     (0)  
   FeHSO4+2        2.110e-20   1.439e-20   -19.676   -19.842    -0.166     (0)  

------------------------------Saturation indices-------------------------------

  Phase               SI** log IAP   log K(298 K,   1 atm)

  Anhydrite        -3.12     -7.49   -4.36  CaSO4
  Brucite          -6.61     10.23   16.84  Mg(OH)2
  Epsomite         -6.43     -8.57   -2.14  MgSO4:7H2O
  Fe(OH)2.7Cl.3     8.48      5.44   -3.04  Fe(OH)2.7Cl0.3
  Fe(OH)3(a)        3.60      8.49    4.89  Fe(OH)3
  Fe3(OH)8          7.27     27.49   20.22  Fe3(OH)8
  Goethite          9.49      8.49   -1.00  FeOOH
  Gypsum           -2.90     -7.49   -4.58  CaSO4:2H2O
  H2(g)           -22.00    -25.15   -3.15  H2
  H2O(g)           -1.51     -0.00    1.51  H2O
  Halite           -7.82     -6.24    1.58  NaCl
  Hematite         20.99     16.98   -4.01  Fe2O3
  Jarosite(ss)     -0.36    -10.19   -9.83  (K0.77Na0.03H0.2)Fe3(SO4)2(OH)6
  Jarosite-K       -0.55     -9.76   -9.21  KFe3(SO4)2(OH)6
  Jarosite-Na      -2.91     -8.19   -5.28  NaFe3(SO4)2(OH)6
  JarositeH        -6.74    -12.13   -5.39  (H3O)Fe3(SO4)2(OH)6
  Maghemite        10.59     16.98    6.39  Fe2O3
  Magnetite        23.75     27.49    3.74  Fe3O4
  Melanterite      -6.08     -8.29   -2.21  FeSO4:7H2O
  Mirabilite       -9.81    -10.92   -1.11  Na2SO4:10H2O
  NH3(g)           -7.90     -6.13    1.77  NH3
  O2(g)           -39.19    -42.08   -2.89  O2
  Portlandite     -11.49     11.31   22.80  Ca(OH)2
  Thenardite      -10.74    -10.92   -0.18  Na2SO4

**For a gas, SI = log10(fugacity). Fugacity = pressure * phi / 1 atm.
  For ideal gases, phi = 1.

------------------
End of simulation.
------------------

------------------------------------
Reading input data for simulation 2.
------------------------------------

-------------------------------
End of Run after 0.293 Seconds.
-------------------------------

