   Input file: C:\Users\Johannes\Documents\HydrochemicalModelling\GIT\Homework2017\Phrqc_test.pqi
  Output file: C:\Users\Johannes\Documents\HydrochemicalModelling\GIT\Homework2017\Phrqc_test.pqo
Database file: C:\Program Files (x86)\USGS\Phreeqc Interactive 3.3.12-12704\database\llnl.dat

------------------
Reading data base.
------------------

	LLNL_AQUEOUS_MODEL_PARAMETERS
	NAMED_EXPRESSIONS
	SOLUTION_MASTER_SPECIES
	SOLUTION_SPECIES
	PHASES
	EXCHANGE_MASTER_SPECIES
	EXCHANGE_SPECIES
	SURFACE_MASTER_SPECIES
	SURFACE_SPECIES
	RATES
	END
------------------------------------
Reading input data for simulation 1.
------------------------------------

	DATABASE C:\Program Files (x86)\USGS\Phreeqc Interactive 3.3.12-12704\database\llnl.dat
	SOLUTION_SPREAD
	units mg/l
	Number	Description	Al	N(-3)	Ba	Ca	Cl	Fe	F	K	Mg	Mn	Na	Ni	N(+5)	N(+3)	P	Si	S(6)	Zn	Alkalinity
			mg/l	mg/l	mg/l	mg/l	mg/l	mg/l	mg/l	mg/l	mg/l	mg/l	mg/l	mg/l	mg/l	mg/l	mg/l	mg/l	mg/l	mg/l	mol/l as HCO3
	1	test1	0.002	13.61		610	4270	13.7		38.8	140	3.36	1300	0.0005	0.22	0.04	0.05		174	0.005	0.01083
WARNING: Alkalinity given in moles, assumed to be equivalents.
	2	test2	0.001288		8.9	2.3	0.02		1.5	7.2	0.71	13	0.011	0.02	30.14			22	0.016	3E-05
	3	test3	0.08	0.27		22	9	0.27		1.8	4.1	0.11	55		2.21	0.21	5.23		9.73		0.00345
WARNING: Alkalinity given in moles, assumed to be equivalents.
	4	test4	0.002	15.35		166	1094	3.9		52.4	130	0.4	315	0.0012	0.22	0.01	0.76		3.7	0.0011	0.01198
WARNING: Alkalinity given in moles, assumed to be equivalents.
	5	test5	0.45		112	16.4	6.4		4	12	0.26	15		0.22	0.19	0.49		14.3		0.00592
	6	test6		1	0.1	68	196	1.8	0.41	4.5	13	0.17	170	0.002	0.04	0.01	0.6		6	0.03	0.00651
WARNING: Alkalinity given in moles, assumed to be equivalents.
	7	test7		0.32		94	26	7.8		1.4	7.7	0.42	9.8		0.44	0.006569	1.71		4.5		0.005
WARNING: Alkalinity given in moles, assumed to be equivalents.
	8	test8	0.01	1.02		62	209	1.5		7.6	21	0.09	200	0.0005	2.21	0.01	0.06		17.9	0.0027	0.00739
WARNING: Alkalinity given in moles, assumed to be equivalents.
	9	test9		2.44		120	26	35		1.9	6.3	0.83	22		0.44	0.006569	0.04		3		0.0079
WARNING: Alkalinity given in moles, assumed to be equivalents.
	10	test10	0.002	0.14		77.1	52	0.67		3.7	5.26	0.15	21.7		6.86	0.00328	0.15		33.2		0.00289
WARNING: Alkalinity given in moles, assumed to be equivalents.
	SELECTED_OUTPUT
		file C:\Users\Johannes\Documents\HydrochemicalModelling\GIT\Homework2017\phreeqc_test.csv # name of output file. OBLIGATORY
		ph true
		percent_error error true
		alkalinity true
		charge_balance balance true
		saturation_indices	Calcite Aragonite Kaolinite Gibbsite Montmorillonite-Ca Chlorite14A Pyrophyllite SiO2(a) CO2(g) 
		totals Al N(-3) Ba Ca Cl Fe F K Mg Mn Na Ni N(+5) N(+3) P Si S(6) Zn Alkalinity  N C #O2(g) CO2(g))
WARNING: Did not find phase, Montmorillonite-Ca.
WARNING: Did not find phase, Chlorite14A.
WARNING: Did not find phase, SiO2(a).
-------------------------------------------
Beginning of initial solution calculations.
-------------------------------------------

Initial solution 1.	 test1 

-----------------------------Solution composition------------------------------

	Elements           Molality       Moles

	Al                7.466e-08   7.466e-08
	Alkalinity        1.091e-02   1.091e-02
	Ca                1.533e-02   1.533e-02
	Cl                1.213e-01   1.213e-01
	Fe                2.471e-04   2.471e-04
	K                 9.996e-04   9.996e-04
	Mg                5.802e-03   5.802e-03
	Mn                6.160e-05   6.160e-05
	N(-3)             9.787e-04   9.787e-04
	N(3)              2.877e-06   2.877e-06
	N(5)              1.582e-05   1.582e-05
	Na                5.696e-02   5.696e-02
	Ni                8.581e-09   8.581e-09
	P                 1.626e-06   1.626e-06
	S(6)              1.825e-03   1.825e-03
	Zn                7.702e-08   7.702e-08

----------------------------Description of solution----------------------------

                                       pH  =   7.000    
                                       pe  =   4.000    
                        Activity of water  =   0.996
                 Ionic strength (mol/kgw)  =   1.359e-01
                       Mass of water (kg)  =   1.000e+00
                    Total carbon (mol/kg)  =   1.241e-02
                       Total CO2 (mol/kg)  =   1.241e-02
                         Temperature (°C)  =  25.00
                  Electrical balance (eq)  =  -3.411e-02
 Percent error, 100*(Cat-|An|)/(Cat+|An|)  = -14.81
                               Iterations  =   7
                                  Total H  = 1.110654e+02
                                  Total O  = 5.556841e+01

---------------------------------Redox couples---------------------------------

	Redox couple             pe  Eh (volts)

	N(-3)/N(3)           5.4795      0.3241
	N(-3)/N(5)           5.9216      0.3503
	N(3)/N(5)            7.2477      0.4287

----------------------------Distribution of species----------------------------

                                               Log       Log       Log    mole V
   Species          Molality    Activity  Molality  Activity     Gamma   cm³/mol

   OH-             1.285e-07   9.600e-08    -6.891    -7.018    -0.127     (0)  
   H+              1.215e-07   1.000e-07    -6.915    -7.000    -0.085      0.00
   H2O             5.553e+01   9.964e-01     1.744    -0.002     0.000     18.07
Al            7.466e-08
   AlO2-           5.978e-08   4.520e-08    -7.223    -7.345    -0.121     (0)  
   HAlO2           1.320e-08   1.320e-08    -7.880    -7.880     0.000     (0)  
   Al(OH)2+        1.199e-09   9.067e-10    -8.921    -9.043    -0.121     (0)  
   NaAlO2          3.634e-10   3.634e-10    -9.440    -9.440     0.000     (0)  
   AlOH+2          1.190e-10   3.919e-11    -9.924   -10.407    -0.482     (0)  
   Al+3            2.246e-12   3.511e-13   -11.649   -12.455    -0.806     (0)  
   AlHPO4+         1.741e-12   1.316e-12   -11.759   -11.881    -0.121     (0)  
   AlSO4+          1.765e-13   1.334e-13   -12.753   -12.875    -0.121     (0)  
   Al(SO4)2-       5.087e-15   3.847e-15   -14.294   -14.415    -0.121     (0)  
   Al2(OH)2+4      1.591e-17   2.498e-19   -16.798   -18.602    -1.804     (0)  
   Al3(OH)4+5      2.970e-21   5.620e-24   -20.527   -23.250    -2.723     (0)  
   AlH2PO4+2       2.003e-23   6.597e-24   -22.698   -23.181    -0.482     (0)  
   Al13O4(OH)24+7   4.563e-32   2.073e-37   -31.341   -36.683    -5.343     (0)  
C(4)          1.241e-02
   HCO3-           9.367e-03   7.083e-03    -2.028    -2.150    -0.121     (0)  
   CO2             1.596e-03   1.649e-03    -2.797    -2.783     0.014     (0)  
   CaHCO3+         5.874e-04   4.441e-04    -3.231    -3.352    -0.121     (0)  
   NaHCO3          4.270e-04   4.270e-04    -3.370    -3.370     0.000     (0)  
   MgHCO3+         2.349e-04   1.776e-04    -3.629    -3.750    -0.121     (0)  
   FeHCO3+         1.326e-04   1.002e-04    -3.878    -3.999    -0.121     (0)  
   CaCO3           3.853e-05   3.853e-05    -4.414    -4.414     0.000     (0)  
   CO3-2           9.541e-06   3.142e-06    -5.020    -5.503    -0.482     (0)  
   MgCO3           7.178e-06   7.178e-06    -5.144    -5.144     0.000     (0)  
   FeCO3           4.811e-06   4.811e-06    -5.318    -5.318     0.000     (0)  
   MnCO3           2.103e-06   2.103e-06    -5.677    -5.677     0.000     (0)  
   MnHCO3+         1.364e-06   1.031e-06    -5.865    -5.987    -0.121     (0)  
   NaCO3-          6.128e-07   4.634e-07    -6.213    -6.334    -0.121     (0)  
   ZnHCO3+         5.634e-09   4.260e-09    -8.249    -8.371    -0.121     (0)  
   FeCO3+          6.206e-10   4.693e-10    -9.207    -9.329    -0.121     (0)  
   ZnCO3           6.157e-10   6.157e-10    -9.211    -9.211     0.000     (0)  
Ca            1.533e-02
   Ca+2            1.428e-02   5.291e-03    -1.845    -2.276    -0.431     (0)  
   CaHCO3+         5.874e-04   4.441e-04    -3.231    -3.352    -0.121     (0)  
   CaSO4           2.871e-04   2.871e-04    -3.542    -3.542     0.000     (0)  
   CaCl+           1.315e-04   9.941e-05    -3.881    -4.003    -0.121     (0)  
   CaCO3           3.853e-05   3.853e-05    -4.414    -4.414     0.000     (0)  
   CaCl2           1.036e-05   1.036e-05    -4.985    -4.985     0.000     (0)  
   CaHPO4          4.340e-07   4.340e-07    -6.363    -6.363     0.000     (0)  
   CaNO3+          3.985e-07   3.013e-07    -6.400    -6.521    -0.121     (0)  
   CaPO4-          1.436e-08   1.086e-08    -7.843    -7.964    -0.121     (0)  
   CaOH+           9.849e-09   7.447e-09    -8.007    -8.128    -0.121     (0)  
   CaP2O7-2        4.255e-13   1.339e-13   -12.371   -12.873    -0.502     (0)  
   CaH2PO4+        2.623e-15   1.984e-15   -14.581   -14.703    -0.121     (0)  
Cl(-1)        1.213e-01
   Cl-             1.203e-01   8.863e-02    -0.920    -1.052    -0.133     (0)  
   NaCl            6.565e-04   6.565e-04    -3.183    -3.183     0.000     (0)  
   MgCl+           1.976e-04   1.494e-04    -3.704    -3.826    -0.121     (0)  
   CaCl+           1.315e-04   9.941e-05    -3.881    -4.003    -0.121     (0)  
   CaCl2           1.036e-05   1.036e-05    -4.985    -4.985     0.000     (0)  
   MnCl+           4.773e-06   3.609e-06    -5.321    -5.443    -0.121     (0)  
   FeCl+           2.303e-06   1.741e-06    -5.638    -5.759    -0.121     (0)  
   KCl             2.181e-06   2.181e-06    -5.661    -5.661     0.000     (0)  
   MnCl3-          8.191e-09   6.193e-09    -8.087    -8.208    -0.121     (0)  
   ZnCl+           4.595e-09   3.475e-09    -8.338    -8.459    -0.121     (0)  
   HCl             1.991e-09   1.991e-09    -8.701    -8.701     0.000     (0)  
   FeCl2           8.283e-10   8.283e-10    -9.082    -9.082     0.000     (0)  
   Zn(OH)Cl        5.920e-10   5.920e-10    -9.228    -9.228     0.000     (0)  
   ZnCl2           3.598e-10   3.598e-10    -9.444    -9.444     0.000     (0)  
   FeCl4-2         5.977e-11   1.880e-11   -10.223   -10.726    -0.502     (0)  
   NiCl+           3.878e-11   2.932e-11   -10.411   -10.533    -0.121     (0)  
   ZnCl4-2         3.761e-11   1.183e-11   -10.425   -10.927    -0.502     (0)  
   ZnCl3-          2.329e-11   1.761e-11   -10.633   -10.754    -0.121     (0)  
   FeCl2+          3.624e-14   2.740e-14   -13.441   -13.562    -0.121     (0)  
   FeCl+2          1.160e-15   3.819e-16   -14.936   -15.418    -0.482     (0)  
   FeCl4-          3.423e-19   2.588e-19   -18.466   -18.587    -0.121     (0)  
Cl(1)         3.461e-37
   HClO            2.551e-37   2.551e-37   -36.593   -36.593     0.000     (0)  
   ClO-            9.098e-38   6.879e-38   -37.041   -37.162    -0.121     (0)  
Cl(3)         0.000e+00
   ClO2-           0.000e+00   0.000e+00   -66.046   -66.167    -0.121     (0)  
   HClO2           0.000e+00   0.000e+00   -69.997   -69.997     0.000     (0)  
Cl(5)         0.000e+00
   ClO3-           0.000e+00   0.000e+00   -81.193   -81.320    -0.127     (0)  
Cl(7)         0.000e+00
   ClO4-           0.000e+00   0.000e+00  -100.647  -100.774    -0.127     (0)  
   ZnClO4+         0.000e+00   0.000e+00  -107.008  -107.129    -0.121     (0)  
Fe(2)         2.142e-04
   FeHCO3+         1.326e-04   1.002e-04    -3.878    -3.999    -0.121     (0)  
   Fe+2            7.276e-05   2.697e-05    -4.138    -4.569    -0.431     (0)  
   FeCO3           4.811e-06   4.811e-06    -5.318    -5.318     0.000     (0)  
   FeCl+           2.303e-06   1.741e-06    -5.638    -5.759    -0.121     (0)  
   FeSO4           1.587e-06   1.587e-06    -5.799    -5.799     0.000     (0)  
   FeOH+           1.124e-07   8.498e-08    -6.949    -7.071    -0.121     (0)  
   FeHPO4          1.602e-08   1.602e-08    -7.795    -7.795     0.000     (0)  
   FePO4-          2.160e-09   1.633e-09    -8.666    -8.787    -0.121     (0)  
   FeCl2           8.283e-10   8.283e-10    -9.082    -9.082     0.000     (0)  
   FeCl4-2         5.977e-11   1.880e-11   -10.223   -10.726    -0.502     (0)  
   Fe(OH)2         6.726e-12   6.726e-12   -11.172   -11.172     0.000     (0)  
   Fe(OH)3-        3.528e-15   2.668e-15   -14.452   -14.574    -0.121     (0)  
   FeH2PO4+        2.668e-16   2.017e-16   -15.574   -15.695    -0.121     (0)  
   Fe(OH)4-2       8.450e-23   2.658e-23   -22.073   -22.575    -0.502     (0)  
Fe(3)         3.293e-05
   Fe(OH)3         2.558e-05   2.558e-05    -4.592    -4.592     0.000     (0)  
   Fe(OH)2+        7.258e-06   5.488e-06    -5.139    -5.261    -0.121     (0)  
   Fe(OH)4-        8.466e-08   6.402e-08    -7.072    -7.194    -0.121     (0)  
   FeOH+2          5.051e-09   1.664e-09    -8.297    -8.779    -0.482     (0)  
   FeCO3+          6.206e-10   4.693e-10    -9.207    -9.329    -0.121     (0)  
   FeHPO4+         7.725e-11   5.841e-11   -10.112   -10.234    -0.121     (0)  
   Fe+3            1.654e-13   2.586e-14   -12.781   -13.587    -0.806     (0)  
   FeCl2+          3.624e-14   2.740e-14   -13.441   -13.562    -0.121     (0)  
   Fe2(OH)2+4      4.746e-15   7.448e-17   -14.324   -16.128    -1.804     (0)  
   FeSO4+          1.229e-15   9.292e-16   -14.911   -15.032    -0.121     (0)  
   FeCl+2          1.160e-15   3.819e-16   -14.936   -15.418    -0.482     (0)  
   FeNO2+2         2.350e-16   7.740e-17   -15.629   -16.111    -0.482     (0)  
   Fe3(OH)4+5      4.514e-17   8.541e-20   -16.345   -19.068    -2.723     (0)  
   FeNO3+2         8.922e-18   2.938e-18   -17.050   -17.532    -0.482     (0)  
   Fe(SO4)2-       7.715e-18   5.834e-18   -17.113   -17.234    -0.121     (0)  
   FeCl4-          3.423e-19   2.588e-19   -18.466   -18.587    -0.121     (0)  
   FeH2PO4+2       1.733e-23   5.708e-24   -22.761   -23.244    -0.482     (0)  
H(0)          1.536e-25
   H2              7.681e-26   7.935e-26   -25.115   -25.100     0.014     (0)  
K             9.996e-04
   K+              9.945e-04   7.327e-04    -3.002    -3.135    -0.133     (0)  
   KSO4-           2.905e-06   2.196e-06    -5.537    -5.658    -0.121     (0)  
   KCl             2.181e-06   2.181e-06    -5.661    -5.661     0.000     (0)  
   KHPO4-          8.714e-10   6.589e-10    -9.060    -9.181    -0.121     (0)  
   KOH             2.531e-11   2.531e-11   -10.597   -10.597     0.000     (0)  
   KHSO4           1.938e-13   1.938e-13   -12.713   -12.713     0.000     (0)  
   KP2O7-3         9.576e-18   6.984e-19   -17.019   -18.156    -1.137     (0)  
Mg            5.802e-03
   Mg+2            5.148e-03   2.159e-03    -2.288    -2.666    -0.377     (0)  
   MgHCO3+         2.349e-04   1.776e-04    -3.629    -3.750    -0.121     (0)  
   MgSO4           2.142e-04   2.142e-04    -3.669    -3.669     0.000     (0)  
   MgCl+           1.976e-04   1.494e-04    -3.704    -3.826    -0.121     (0)  
   MgCO3           7.178e-06   7.178e-06    -5.144    -5.144     0.000     (0)  
   MgHPO4          2.620e-07   2.620e-07    -6.582    -6.582     0.000     (0)  
   MgPO4-          7.886e-09   5.963e-09    -8.103    -8.225    -0.121     (0)  
   MgP2O7-2        5.142e-13   1.618e-13   -12.289   -12.791    -0.502     (0)  
   MgH2PO4+        1.948e-15   1.473e-15   -14.710   -14.832    -0.121     (0)  
   Mg4(OH)4+4      2.429e-21   3.812e-23   -20.615   -22.419    -1.804     (0)  
Mn(2)         6.160e-05
   Mn+2            5.159e-05   1.912e-05    -4.287    -4.718    -0.431     (0)  
   MnCl+           4.773e-06   3.609e-06    -5.321    -5.443    -0.121     (0)  
   MnCO3           2.103e-06   2.103e-06    -5.677    -5.677     0.000     (0)  
   MnSO4           1.752e-06   1.752e-06    -5.756    -5.756     0.000     (0)  
   MnHCO3+         1.364e-06   1.031e-06    -5.865    -5.987    -0.121     (0)  
   MnHPO4          1.085e-08   1.085e-08    -7.965    -7.965     0.000     (0)  
   MnCl3-          8.191e-09   6.193e-09    -8.087    -8.208    -0.121     (0)  
   MnOH+           6.477e-09   4.897e-09    -8.189    -8.310    -0.121     (0)  
   MnNO3+          4.554e-10   3.443e-10    -9.342    -9.463    -0.121     (0)  
   MnPO4-          2.786e-10   2.107e-10    -9.555    -9.676    -0.121     (0)  
   MnH2PO4+        1.356e-10   1.025e-10    -9.868    -9.989    -0.121     (0)  
   Mn2OH+3         1.128e-12   1.003e-13   -11.948   -12.999    -1.051     (0)  
   Mn2(OH)3+       6.022e-13   4.553e-13   -12.220   -12.342    -0.121     (0)  
   Mn(OH)2         1.198e-13   1.198e-13   -12.922   -12.922     0.000     (0)  
   Mn(NO3)2        9.828e-15   9.828e-15   -14.008   -14.008     0.000     (0)  
   Mn(OH)3-        1.480e-18   1.119e-18   -17.830   -17.951    -0.121     (0)  
   Mn(OH)4-2       3.003e-25   9.446e-26   -24.522   -25.025    -0.502     (0)  
Mn(3)         5.734e-26
   Mn+3            5.734e-26   5.100e-27   -25.242   -26.292    -1.051     (0)  
Mn(6)         0.000e+00
   MnO4-2          0.000e+00   0.000e+00   -50.669   -51.172    -0.502     (0)  
Mn(7)         0.000e+00
   MnO4-           0.000e+00   0.000e+00   -56.401   -56.528    -0.127     (0)  
N(-3)         9.787e-04
   NH4+            9.747e-04   7.075e-04    -3.011    -3.150    -0.139     (0)  
   NH3             4.072e-06   4.072e-06    -5.390    -5.390     0.000     (0)  
   Zn(NH3)+2       3.257e-11   1.073e-11   -10.487   -10.970    -0.482     (0)  
   Zn(NH3)2+2      2.133e-14   7.024e-15   -13.671   -14.153    -0.482     (0)  
   Ni(NH3)2+2      1.889e-14   6.222e-15   -13.724   -14.206    -0.482     (0)  
   NH4SO4-         1.742e-15   1.317e-15   -14.759   -14.880    -0.121     (0)  
   Zn(NH3)3+2      1.397e-17   4.599e-18   -16.855   -17.337    -0.482     (0)  
   Zn(NH3)4+2      4.868e-21   1.603e-21   -20.313   -20.795    -0.482     (0)  
   Ni(NH3)6+2      2.515e-32   8.282e-33   -31.600   -32.082    -0.482     (0)  
N(3)          2.877e-06
   NO2-            2.876e-06   2.119e-06    -5.541    -5.674    -0.133     (0)  
   HNO2            3.617e-10   3.617e-10    -9.442    -9.442     0.000     (0)  
   FeNO2+2         2.350e-16   7.740e-17   -15.629   -16.111    -0.482     (0)  
N(5)          1.582e-05
   NO3-            1.542e-05   1.136e-05    -4.812    -4.945    -0.133     (0)  
   CaNO3+          3.985e-07   3.013e-07    -6.400    -6.521    -0.121     (0)  
   MnNO3+          4.554e-10   3.443e-10    -9.342    -9.463    -0.121     (0)  
   NiNO3+          1.173e-13   8.870e-14   -12.931   -13.052    -0.121     (0)  
   HNO3            5.943e-14   5.943e-14   -13.226   -13.226     0.000     (0)  
   Mn(NO3)2        9.828e-15   9.828e-15   -14.008   -14.008     0.000     (0)  
   FeNO3+2         8.922e-18   2.938e-18   -17.050   -17.532    -0.482     (0)  
   Ni(NO3)2        6.399e-19   6.399e-19   -18.194   -18.194     0.000     (0)  
Na            5.696e-02
   Na+             5.574e-02   4.215e-02    -1.254    -1.375    -0.121     (0)  
   NaCl            6.565e-04   6.565e-04    -3.183    -3.183     0.000     (0)  
   NaHCO3          4.270e-04   4.270e-04    -3.370    -3.370     0.000     (0)  
   NaSO4-          1.368e-04   1.034e-04    -3.864    -3.985    -0.121     (0)  
   NaCO3-          6.128e-07   4.634e-07    -6.213    -6.334    -0.121     (0)  
   NaHPO4-         6.919e-08   5.232e-08    -7.160    -7.281    -0.121     (0)  
   NaOH            6.980e-10   6.980e-10    -9.156    -9.156     0.000     (0)  
   NaAlO2          3.634e-10   3.634e-10    -9.440    -9.440     0.000     (0)  
   NaHP2O7-2       2.119e-15   6.667e-16   -14.674   -15.176    -0.502     (0)  
   NaP2O7-3        4.518e-16   3.295e-17   -15.345   -16.482    -1.137     (0)  
   Na2P2O7-2       3.506e-16   1.103e-16   -15.455   -15.957    -0.502     (0)  
Ni            8.581e-09
   Ni+2            8.384e-09   3.108e-09    -8.077    -8.508    -0.431     (0)  
   NiSO4           1.584e-10   1.584e-10    -9.800    -9.800     0.000     (0)  
   NiCl+           3.878e-11   2.932e-11   -10.411   -10.533    -0.121     (0)  
   NiNO3+          1.173e-13   8.870e-14   -12.931   -13.052    -0.121     (0)  
   Ni(NH3)2+2      1.889e-14   6.222e-15   -13.724   -14.206    -0.482     (0)  
   Ni(OH)2         3.156e-15   3.156e-15   -14.501   -14.501     0.000     (0)  
   Ni(NO3)2        6.399e-19   6.399e-19   -18.194   -18.194     0.000     (0)  
   Ni(OH)3-        4.206e-19   3.181e-19   -18.376   -18.497    -0.121     (0)  
   NiP2O7-2        3.224e-19   1.014e-19   -18.492   -18.994    -0.502     (0)  
   Ni2OH+3         2.159e-20   1.920e-21   -19.666   -20.717    -1.051     (0)  
   NiHP2O7-        1.703e-20   1.288e-20   -19.769   -19.890    -0.121     (0)  
   Ni(NH3)6+2      2.515e-32   8.282e-33   -31.600   -32.082    -0.482     (0)  
   Ni4(OH)4+4      1.223e-32   1.919e-34   -31.913   -33.717    -1.804     (0)  
O(0)          0.000e+00
   O2              0.000e+00   0.000e+00   -42.012   -41.998     0.014     (0)  
P(-3)         0.000e+00
   PH4+            0.000e+00   0.000e+00  -156.449  -156.571    -0.121     (0)  
P(5)          1.626e-06
   HPO4-2          4.744e-07   1.492e-07    -6.324    -6.826    -0.502     (0)  
   CaHPO4          4.340e-07   4.340e-07    -6.363    -6.363     0.000     (0)  
   H2PO4-          3.338e-07   2.524e-07    -6.477    -6.598    -0.121     (0)  
   MgHPO4          2.620e-07   2.620e-07    -6.582    -6.582     0.000     (0)  
   NaHPO4-         6.919e-08   5.232e-08    -7.160    -7.281    -0.121     (0)  
   FeHPO4          1.602e-08   1.602e-08    -7.795    -7.795     0.000     (0)  
   CaPO4-          1.436e-08   1.086e-08    -7.843    -7.964    -0.121     (0)  
   MnHPO4          1.085e-08   1.085e-08    -7.965    -7.965     0.000     (0)  
   MgPO4-          7.886e-09   5.963e-09    -8.103    -8.225    -0.121     (0)  
   FePO4-          2.160e-09   1.633e-09    -8.666    -8.787    -0.121     (0)  
   KHPO4-          8.714e-10   6.589e-10    -9.060    -9.181    -0.121     (0)  
   MnPO4-          2.786e-10   2.107e-10    -9.555    -9.676    -0.121     (0)  
   MnH2PO4+        1.356e-10   1.025e-10    -9.868    -9.989    -0.121     (0)  
   FeHPO4+         7.725e-11   5.841e-11   -10.112   -10.234    -0.121     (0)  
   PO4-3           9.275e-12   6.764e-13   -11.033   -12.170    -1.137     (0)  
   ZnHPO4          6.337e-12   6.337e-12   -11.198   -11.198     0.000     (0)  
   H3PO4           3.888e-12   3.888e-12   -11.410   -11.410     0.000     (0)  
   ZnPO4-          2.299e-12   1.738e-12   -11.639   -11.760    -0.121     (0)  
   AlHPO4+         1.741e-12   1.316e-12   -11.759   -11.881    -0.121     (0)  
   MgP2O7-2        5.142e-13   1.618e-13   -12.289   -12.791    -0.502     (0)  
   CaP2O7-2        4.255e-13   1.339e-13   -12.371   -12.873    -0.502     (0)  
   HP2O7-3         9.713e-15   7.083e-16   -14.013   -15.150    -1.137     (0)  
   CaH2PO4+        2.623e-15   1.984e-15   -14.581   -14.703    -0.121     (0)  
   NaHP2O7-2       2.119e-15   6.667e-16   -14.674   -15.176    -0.502     (0)  
   MgH2PO4+        1.948e-15   1.473e-15   -14.710   -14.832    -0.121     (0)  
   H2P2O7-2        9.314e-16   2.930e-16   -15.031   -15.533    -0.502     (0)  
   P2O7-4          4.606e-16   4.339e-18   -15.337   -17.363    -2.026     (0)  
   NaP2O7-3        4.518e-16   3.295e-17   -15.345   -16.482    -1.137     (0)  
   Na2P2O7-2       3.506e-16   1.103e-16   -15.455   -15.957    -0.502     (0)  
   FeH2PO4+        2.668e-16   2.017e-16   -15.574   -15.695    -0.121     (0)  
   KP2O7-3         9.576e-18   6.984e-19   -17.019   -18.156    -1.137     (0)  
   NiP2O7-2        3.224e-19   1.014e-19   -18.492   -18.994    -0.502     (0)  
   NiHP2O7-        1.703e-20   1.288e-20   -19.769   -19.890    -0.121     (0)  
   H3P2O7-         8.905e-21   6.734e-21   -20.050   -20.172    -0.121     (0)  
   ZnH2PO4+        1.240e-21   9.373e-22   -20.907   -21.028    -0.121     (0)  
   AlH2PO4+2       2.003e-23   6.597e-24   -22.698   -23.181    -0.482     (0)  
   FeH2PO4+2       1.733e-23   5.708e-24   -22.761   -23.244    -0.482     (0)  
   H4P2O7          1.978e-26   1.978e-26   -25.704   -25.704     0.000     (0)  
S(6)          1.825e-03
   SO4-2           1.181e-03   3.714e-04    -2.928    -3.430    -0.502     (0)  
   CaSO4           2.871e-04   2.871e-04    -3.542    -3.542     0.000     (0)  
   MgSO4           2.142e-04   2.142e-04    -3.669    -3.669     0.000     (0)  
   NaSO4-          1.368e-04   1.034e-04    -3.864    -3.985    -0.121     (0)  
   KSO4-           2.905e-06   2.196e-06    -5.537    -5.658    -0.121     (0)  
   MnSO4           1.752e-06   1.752e-06    -5.756    -5.756     0.000     (0)  
   FeSO4           1.587e-06   1.587e-06    -5.799    -5.799     0.000     (0)  
   HSO4-           4.961e-09   3.752e-09    -8.304    -8.426    -0.121     (0)  
   ZnSO4           1.821e-09   1.821e-09    -8.740    -8.740     0.000     (0)  
   NiSO4           1.584e-10   1.584e-10    -9.800    -9.800     0.000     (0)  
   KHSO4           1.938e-13   1.938e-13   -12.713   -12.713     0.000     (0)  
   AlSO4+          1.765e-13   1.334e-13   -12.753   -12.875    -0.121     (0)  
   Al(SO4)2-       5.087e-15   3.847e-15   -14.294   -14.415    -0.121     (0)  
   NH4SO4-         1.742e-15   1.317e-15   -14.759   -14.880    -0.121     (0)  
   FeSO4+          1.229e-15   9.292e-16   -14.911   -15.032    -0.121     (0)  
   Fe(SO4)2-       7.715e-18   5.834e-18   -17.113   -17.234    -0.121     (0)  
   H2SO4           3.539e-19   3.539e-19   -18.451   -18.451     0.000     (0)  
Zn            7.702e-08
   Zn+2            6.295e-08   2.333e-08    -7.201    -7.632    -0.431     (0)  
   ZnHCO3+         5.634e-09   4.260e-09    -8.249    -8.371    -0.121     (0)  
   ZnCl+           4.595e-09   3.475e-09    -8.338    -8.459    -0.121     (0)  
   ZnSO4           1.821e-09   1.821e-09    -8.740    -8.740     0.000     (0)  
   ZnCO3           6.157e-10   6.157e-10    -9.211    -9.211     0.000     (0)  
   Zn(OH)Cl        5.920e-10   5.920e-10    -9.228    -9.228     0.000     (0)  
   ZnCl2           3.598e-10   3.598e-10    -9.444    -9.444     0.000     (0)  
   ZnOH+           3.372e-10   2.550e-10    -9.472    -9.593    -0.121     (0)  
   ZnCl4-2         3.761e-11   1.183e-11   -10.425   -10.927    -0.502     (0)  
   Zn(NH3)+2       3.257e-11   1.073e-11   -10.487   -10.970    -0.482     (0)  
   ZnCl3-          2.329e-11   1.761e-11   -10.633   -10.754    -0.121     (0)  
   Zn(OH)2         1.088e-11   1.088e-11   -10.963   -10.963     0.000     (0)  
   ZnHPO4          6.337e-12   6.337e-12   -11.198   -11.198     0.000     (0)  
   ZnPO4-          2.299e-12   1.738e-12   -11.639   -11.760    -0.121     (0)  
   Zn(NH3)2+2      2.133e-14   7.024e-15   -13.671   -14.153    -0.482     (0)  
   Zn(OH)3-        4.444e-16   3.360e-16   -15.352   -15.474    -0.121     (0)  
   Zn(NH3)3+2      1.397e-17   4.599e-18   -16.855   -17.337    -0.482     (0)  
   Zn(NH3)4+2      4.868e-21   1.603e-21   -20.313   -20.795    -0.482     (0)  
   Zn(OH)4-2       1.815e-21   5.708e-22   -20.741   -21.243    -0.502     (0)  
   ZnH2PO4+        1.240e-21   9.373e-22   -20.907   -21.028    -0.121     (0)  
   ZnClO4+         0.000e+00   0.000e+00  -107.008  -107.129    -0.121     (0)  

------------------------------Saturation indices-------------------------------

  Phase               SI** log IAP   log K(298 K,   1 atm)

  Al             -109.87     40.04  149.91  Al
  Al(g)          -160.58     40.04  200.62  Al
  Al2(SO4)3       -54.10    -35.20   18.90  Al2(SO4)3
  Al2(SO4)3:6H2O  -36.76    -35.21    1.56  Al2(SO4)3:6H2O
  Alum-K          -17.50    -22.47   -4.97  KAl(SO4)2:12H2O
  Alunite          -4.90     -5.37   -0.47  KAl3(OH)6(SO4)2
  Anhydrite        -1.36     -5.71   -4.35  CaSO4
  Antarcticite     -8.48     -4.39    4.09  CaCl2:6H2O
  Aphthitalite    -13.75    -17.64   -3.89  NaK3(SO4)2
  Aragonite         0.60      2.57    1.97  CaCO3
  Arcanite         -7.86     -9.70   -1.84  K2SO4
  Artinite         -6.12     13.51   19.63  Mg2CO3(OH)2:3H2O
  Bassanite        -2.00     -5.71   -3.71  CaSO4:0.5H2O
  Berlinite        -5.01    -12.28   -7.27  AlPO4
  Birnessite      -63.57   -149.12  -85.55  Mn8O14:5H2O
  Bischofite       -9.17     -4.78    4.39  MgCl2:6H2O
  Bixbyite         -9.62    -10.59   -0.96  Mn2O3
  Bloedite         -9.81    -12.28   -2.48  Na2Mg(SO4)2:4H2O
  Boehmite          0.99      8.54    7.55  AlO2H
  Brucite          -4.95     11.33   16.28  Mg(OH)2
  Brushite        -15.66     -9.11    6.55  CaHPO4:2H2O
  Bunsenite        -6.97      5.49   12.46  NiO
  Burkeite        -19.75    -10.26    9.49  Na6CO3(SO4)2
  C               -31.30     32.85   64.15  C
  C(g)           -148.92     32.85  181.77  C
  Ca             -107.11     32.72  139.83  Ca
  Ca(g)          -132.35     32.72  165.07  Ca
  Ca2Al2O5:8H2O   -19.05     40.52   59.57  Ca2Al2O5:8H2O
  Ca2Cl2(OH)2:H2O -18.95      7.34   26.29  Ca2Cl2(OH)2:H2O
  Ca3Al2O6        -60.78     52.25  113.03  Ca3Al2O6
  Ca4Al2Fe2O10    -61.69     78.79  140.48  Ca4Al2Fe2O10
  Ca4Al2O7:13H2O  -43.30     63.95  107.25  Ca4Al2O7:13H2O
  Ca4Al2O7:19H2O  -39.74     63.94  103.68  Ca4Al2O7:19H2O
  Ca4Cl2(OH)6:13H2O -37.57     30.76   68.33  Ca4Cl2(OH)6:13H2O
  CaAl2O4         -18.10     28.81   46.91  CaAl2O4
  CaAl2O4:10H2O    -9.20     28.79   37.99  CaAl2O4:10H2O
  CaAl4O7         -22.70     45.89   68.59  CaAl4O7
  Calcite           0.75      2.57    1.82  CaCO3
  Carnallite      -13.24     -8.97    4.27  KMgCl3:6H2O
  CaSO4:0.5H2O(beta)  -2.17     -5.71   -3.54  CaSO4:0.5H2O
  Chloromagnesite -26.59     -4.77   21.82  MgCl2
  Cl2(g)          -40.10    -37.10    2.99  Cl2
  CO2(g)           -1.32     -9.15   -7.83  CO2
  Corundum         -1.20     17.09   18.29  Al2O3
  Dawsonite         0.68      5.02    4.34  NaAlCO3(OH)2
  Diaspore          1.40      8.54    7.15  AlHO2
  Dolomite          2.28      4.76    2.47  CaMg(CO3)2
  Dolomite-dis      0.75      4.76    4.01  CaMg(CO3)2
  Dolomite-ord      2.29      4.76    2.46  CaMg(CO3)2
  Epsomite         -4.14     -6.11   -1.96  MgSO4:7H2O
  Ettringite      -27.38     35.08   62.46  Ca6Al2(SO4)3(OH)12:26H2O
  Fe              -28.59     30.43   59.02  Fe
  Fe(OH)2          -4.47      9.43   13.89  Fe(OH)2
  Fe(OH)3           1.77      7.41    5.64  Fe(OH)3
  Fe2(SO4)3       -40.51    -37.47    3.05  Fe2(SO4)3
  FeO              -4.09      9.43   13.52  FeO
  Ferrite-Ca        5.05     26.54   21.50  CaFe2O4
  Ferrite-Dicalcium -18.53     38.26   56.80  Ca2Fe2O5
  Ferrite-Mg        5.13     26.15   21.02  MgFe2O4
  Ferrite-Zn        9.49     21.19   11.70  ZnFe2O4
  FeSO4           -10.61     -8.00    2.61  FeSO4
  Gaylussite       -6.50      4.67   11.16  CaNa2(CO3)2:5H2O
  Gibbsite          0.80      8.54    7.74  Al(OH)3
  Glauberite       -6.42    -11.89   -5.47  Na2Ca(SO4)2
  Goethite          6.88      7.41    0.53  FeOOH
  Gypsum           -1.18     -5.71   -4.53  CaSO4:2H2O
  H2(g)           -22.00    -25.10   -3.10  H2
  H2O(g)           -1.59     -0.00    1.59  H2O
  Halite           -3.99     -2.43    1.56  NaCl
  Hausmannite     -11.45     -1.31   10.14  Mn3O4
  HCl(g)          -14.35     -8.05    6.30  HCl
  Hematite         14.75     14.82    0.08  Fe2O3
  Hercynite        -2.29     26.52   28.80  FeAl2O4
  Hexahydrite      -4.38     -6.11   -1.73  MgSO4:6H2O
  Hopeite         -11.90    -22.55  -10.66  Zn3(PO4)2:4H2O
  Huntite          -1.09      9.13   10.22  CaMg3(CO3)4
  Hydromagnesite  -10.68     20.06   30.74  Mg5(CO3)4(OH)2:4H2O
  Hydrophilite    -16.13     -4.38   11.75  CaCl2
  Hydroxylapatite  -0.64     -3.86   -3.22  Ca5(OH)(PO4)3
  Hydrozincite    -16.78     13.53   30.31  Zn5(OH)6(CO3)2
  Ice              -0.14     -0.00    0.14  H2O
  Jarosite          0.64     -8.77   -9.41  KFe3(SO4)2(OH)6
  Jarosite-Na      -1.56     -7.01   -5.45  NaFe3(SO4)2(OH)6
  K               -56.61     14.36   70.98  K
  K(g)            -67.21     14.36   81.58  K
  K2CO3:1.5H2O    -14.80     -1.42   13.38  K2CO3:1.5H2O
  K2O             -76.31      7.73   84.04  K2O
  K3H(SO4)2       -19.64    -23.27   -3.62  K3H(SO4)2
  K8H4(CO3)6:3H2O -51.69    -23.98   27.71  K8H4(CO3)6:3H2O
  Kainite          -9.98    -10.29   -0.31  KMgClSO4:3H2O
  KAl(SO4)2       -25.72    -22.45    3.27  KAl(SO4)2
  Kalicinite       -5.57     -5.28    0.28  KHCO3
  Katoite         -26.70     52.24   78.94  Ca3Al2H12O12
  Kieserite        -5.83     -6.10   -0.27  MgSO4:H2O
  KMgCl3          -30.20     -8.96   21.25  KMgCl3
  KMgCl3:2H2O     -22.92     -8.96   13.96  KMgCl3:2H2O
  KNaCO3:6H2O      -9.93      0.33   10.26  KNaCO3:6H2O
  Lansfordite      -2.66      2.18    4.84  MgCO3:5H2O
  Lawrencite      -15.73     -6.67    9.05  FeCl2
  Leonite         -11.69    -15.80   -4.11  K2Mg(SO4)2:4H2O
  Lime            -20.85     11.72   32.57  CaO
  Magnesite        -0.09      2.18    2.27  MgCO3
  Magnetite        13.83     24.25   10.42  Fe3O4
  Manganite        -5.13     -5.30   -0.16  MnO(OH)
  Manganosite      -8.64      9.28   17.92  MnO
  Mayenite       -233.88    260.27  494.15  Ca12Al14O33
  Melanterite      -5.61     -8.01   -2.40  FeSO4:7H2O
  Mercallite      -12.13    -13.57   -1.44  KHSO4
  Mg              -90.19     32.33  122.52  Mg
  Mg(g)          -109.91     32.33  142.25  Mg
  Mg1.25SO4(OH)0.5:0.5H2O  -8.46     -3.26    5.20  Mg1.25SO4(OH)0.5:0.5H2O
  Mg1.5SO4(OH)     -9.64     -0.43    9.21  Mg1.5SO4(OH)
  MgCl2:2H2O      -17.51     -4.77   12.73  MgCl2:2H2O
  MgCl2:4H2O      -12.08     -4.78    7.30  MgCl2:4H2O
  MgCl2:H2O       -20.84     -4.77   16.07  MgCl2:H2O
  MgOHCl          -12.61      3.28   15.89  MgOHCl
  MgSO4           -10.92     -6.10    4.83  MgSO4
  Mirabilite       -5.04     -6.20   -1.15  Na2SO4:10H2O
  Misenite        -80.02    -91.09  -11.08  K8H6(SO4)7
  Mn              -52.65     30.28   82.93  Mn
  Mn(OH)2(am)      -6.03      9.28   15.31  Mn(OH)2
  Mn(OH)3         -11.64     -5.30    6.34  Mn(OH)3
  Mn3(PO4)2       -14.62    -13.81    0.82  Mn3(PO4)2
  MnCl2:2H2O      -10.82     -6.83    4.00  MnCl2:2H2O
  MnCl2:4H2O       -9.58     -6.83    2.75  MnCl2:4H2O
  MnCl2:H2O       -12.37     -6.82    5.54  MnCl2:H2O
  MnHPO4            1.40    -11.54  -12.95  MnHPO4
  MnO2(gamma)     -11.82    -27.95  -16.13  MnO2
  MnSO4           -10.76     -8.15    2.61  MnSO4
  Molysite        -30.22    -16.74   13.47  FeCl3
  Monohydrocalcite  -0.11      2.57    2.68  CaCO3:H2O
  Morenosite       -9.89    -11.95   -2.06  NiSO4:7H2O
  Na              -51.25     16.12   67.37  Na
  Na(g)           -64.74     16.12   80.86  Na
  Na2CO3           -9.06      2.10   11.16  Na2CO3
  Na2CO3:7H2O      -7.85      2.09    9.94  Na2CO3:7H2O
  Na2O            -56.17     11.25   67.42  Na2O
  Na3H(SO4)2      -17.10    -17.99   -0.89  Na3H(SO4)2
  Na4Ca(SO4)3:2H2O -12.18    -18.07   -5.89  Na4Ca(SO4)3:2H2O
  NaFeO2           -6.85     13.03   19.88  NaFeO2
  Nahcolite        -3.38     -3.53   -0.14  NaHCO3
  Natron           -7.50      2.08    9.59  Na2CO3:10H2O
  Nesquehonite     -3.11      2.18    5.29  MgCO3:3H2O
  NH3(g)           -7.19     -5.39    1.80  NH3
  Ni              -24.49     26.49   50.98  Ni
  Ni(OH)2          -7.26      5.49   12.75  Ni(OH)2
  Ni2P2O7         -21.77    -30.67   -8.90  Ni2P2O7
  Ni3(PO4)2       -18.53    -25.17   -6.64  Ni3(PO4)2
  Nickelbischofite -13.78    -10.62    3.15  NiCl2:6H2O
  NiCl2           -19.21    -10.61    8.60  NiCl2
  NiCl2:2H2O      -14.54    -10.62    3.92  NiCl2:2H2O
  NiCl2:4H2O      -14.47    -10.62    3.85  NiCl2:4H2O
  NiCO3            -7.17     -3.66    3.51  NiCO3
  NiSO4           -17.21    -11.94    5.28  NiSO4
  NiSO4:6H2O(alpha)  -9.93    -11.95   -2.02  NiSO4:6H2O
  Niter            -7.86     -8.08   -0.22  KNO3
  NO(g)            -2.91     -2.17    0.74  NO
  NO2(g)           -9.79     -1.44    8.35  NO2
  O2(g)           -39.11    -42.00   -2.89  O2
  Oxychloride-Mg  -11.23     14.61   25.83  Mg2Cl(OH)3:4H2O
  P              -100.38     31.67  132.05  P
  Pentahydrite     -4.72     -6.10   -1.39  MgSO4:5H2O
  Periclase        -9.99     11.33   21.33  MgO
  Picromerite     -11.37    -15.81   -4.44  K2Mg(SO4)2:6H2O
  Pirssonite       -6.65      4.67   11.32  Na2Ca(CO3)2:2H2O
  Polyhalite      -12.90    -27.21  -14.31  K2MgCa2(SO4)4:2H2O
  Portlandite     -10.83     11.72   22.55  Ca(OH)2
  Pyrolusite      -10.28    -27.95  -17.66  MnO2
  Rhodochrosite     0.35      0.13   -0.22  MnCO3
  Scacchite       -15.56     -6.82    8.74  MnCl2
  Siderite          0.50      0.28   -0.22  FeCO3
  Smithsonite      -3.23     -2.78    0.44  ZnCO3
  Spinel           -9.19     28.42   37.61  Al2MgO4
  Starkeyite       -5.10     -6.10   -1.00  MgSO4:4H2O
  Strengite        -2.02    -13.42  -11.39  FePO4:2H2O
  Sylvite          -5.01     -4.19    0.83  KCl
  Syngenite        -7.81    -15.41   -7.60  K2Ca(SO4)2:H2O
  Tachyhydrite    -31.08    -13.94   17.14  Mg2CaCl6:12H2O
  Thenardite       -5.82     -6.18   -0.36  Na2SO4
  Thermonatrite    -8.84      2.10   10.94  Na2CO3:H2O
  Todorokite      -51.12    -96.94  -45.82  Mn7O12:3H2O
  Trevorite        10.53     20.31    9.78  NiFe2O4
  Trona-K         -16.54     -4.95   11.59  K2NaH(CO3)2:2H2O
  Vivianite        -8.65    -13.37   -4.72  Fe3(PO4)2:8H2O
  Whitlockite      -2.16     -6.48   -4.32  Ca3(PO4)2
  Wustite          -3.69      8.72   12.40  Fe.947O
  Zincite          -4.83      6.37   11.20  ZnO
  Zn              -41.42     27.37   68.79  Zn
  Zn(ClO4)2:6H2O -214.82   -209.19    5.63  Zn(ClO4)2:6H2O
  Zn(g)           -58.04     27.37   85.41  Zn
  Zn(NO3)2:6H2O   -20.93    -17.53    3.40  Zn(NO3)2:6H2O
  Zn(OH)2(beta)    -5.57      6.36   11.93  Zn(OH)2
  Zn(OH)2(epsilon)  -5.30      6.36   11.66  Zn(OH)2
  Zn(OH)2(gamma)   -5.52      6.36   11.88  Zn(OH)2
  Zn2(OH)3Cl      -10.61      4.68   15.29  Zn2(OH)3Cl
  Zn2SO4(OH)2     -12.28     -4.70    7.58  Zn2SO4(OH)2
  Zn3O(SO4)2      -34.85    -15.76   19.09  Zn3O(SO4)2
  Zn5(NO3)2(OH)8  -34.73      7.94   42.67  Zn5(NO3)2(OH)8
  ZnCl2           -16.82     -9.74    7.08  ZnCl2
  ZnCl2(NH3)2     -13.51    -20.52   -7.01  ZnCl2(NH3)2
  ZnCl2(NH3)4     -24.59    -31.30   -6.71  ZnCl2(NH3)4
  ZnCl2(NH3)6     -37.34    -42.08   -4.74  ZnCl2(NH3)6
  ZnCO3:H2O        -2.92     -2.78    0.14  ZnCO3:H2O
  ZnSO4           -14.59    -11.06    3.53  ZnSO4
  ZnSO4:6H2O       -9.37    -11.07   -1.70  ZnSO4:6H2O
  ZnSO4:7H2O       -9.20    -11.07   -1.88  ZnSO4:7H2O
  ZnSO4:H2O       -10.51    -11.06   -0.55  ZnSO4:H2O

**For a gas, SI = log10(fugacity). Fugacity = pressure * phi / 1 atm.
  For ideal gases, phi = 1.

Initial solution 2.	 test2 

-----------------------------Solution composition------------------------------

	Elements           Molality       Moles

	Al                4.774e-08   4.774e-08
	Ba                6.481e-05   6.481e-05
	Ca                5.739e-05   5.739e-05
	Cl                5.642e-07   5.642e-07
	F                 7.896e-05   7.896e-05
	K                 1.842e-04   1.842e-04
	Mg                2.921e-05   2.921e-05
	Mn                2.367e-04   2.367e-04
	N(5)              2.152e-03   2.152e-03
	Na                4.785e-07   4.785e-07
	Ni                3.408e-07   3.408e-07
	S(6)              1.666e-07   1.666e-07
	Si                3.662e-04   3.662e-04
	Zn                4.588e-10   4.588e-10

----------------------------Description of solution----------------------------

                                       pH  =   7.000    
                                       pe  =   4.000    
                        Activity of water  =   1.000
                 Ionic strength (mol/kgw)  =   1.980e-03
                       Mass of water (kg)  =   1.000e+00
                 Total alkalinity (eq/kg)  =   6.193e-07
                    Total carbon (mol/kg)  =   0.000e+00
                       Total CO2 (mol/kg)  =   0.000e+00
                         Temperature (°C)  =  25.00
                  Electrical balance (eq)  =  -1.271e-03
 Percent error, 100*(Cat-|An|)/(Cat+|An|)  = -39.85
                               Iterations  =  11
                                  Total H  = 1.110507e+02
                                  Total O  = 5.553251e+01

----------------------------Distribution of species----------------------------

                                               Log       Log       Log    mole V
   Species          Molality    Activity  Molality  Activity     Gamma   cm³/mol

   H+              1.047e-07   1.000e-07    -6.980    -7.000    -0.020      0.00
   OH-             1.012e-07   9.634e-08    -6.995    -7.016    -0.022     (0)  
   H2O             5.553e+01   9.999e-01     1.744    -0.000     0.000     18.07
Al            4.774e-08
   AlO2-           2.924e-08   2.783e-08    -7.534    -7.555    -0.021     (0)  
   HAlO2           8.125e-09   8.125e-09    -8.090    -8.090     0.000     (0)  
   AlF2+           5.002e-09   4.761e-09    -8.301    -8.322    -0.021     (0)  
   AlF3            4.475e-09   4.475e-09    -8.349    -8.349     0.000     (0)  
   Al(OH)2+        5.865e-10   5.583e-10    -9.232    -9.253    -0.021     (0)  
   AlF+2           1.950e-10   1.602e-10    -9.710    -9.795    -0.085     (0)  
   AlF4-           8.814e-11   8.390e-11   -10.055   -10.076    -0.021     (0)  
   AlOH+2          2.927e-11   2.404e-11   -10.534   -10.619    -0.085     (0)  
   Al+3            3.256e-13   2.146e-13   -12.487   -12.668    -0.181     (0)  
   NaAlO2          2.418e-15   2.418e-15   -14.616   -14.616     0.000     (0)  
   AlSO4+          3.000e-17   2.855e-17   -16.523   -16.544    -0.021     (0)  
   Al2(OH)2+4      2.042e-19   9.401e-20   -18.690   -19.027    -0.337     (0)  
   Al(SO4)2-       3.027e-22   2.882e-22   -21.519   -21.540    -0.021     (0)  
   Al3(OH)4+5      4.342e-24   1.302e-24   -23.362   -23.885    -0.523     (0)  
   Al13O4(OH)24+7   4.043e-39   3.816e-40   -38.393   -39.418    -1.025     (0)  
Ba            6.481e-05
   Ba+2            6.391e-05   5.258e-05    -4.194    -4.279    -0.085     (0)  
   BaNO3+          8.974e-07   8.542e-07    -6.047    -6.068    -0.021     (0)  
   BaF+            2.841e-09   2.704e-09    -8.547    -8.568    -0.021     (0)  
   BaOH+           1.872e-11   1.782e-11   -10.728   -10.749    -0.021     (0)  
   BaCl+           9.940e-12   9.462e-12   -11.003   -11.024    -0.021     (0)  
Ca            5.739e-05
   Ca+2            5.687e-05   4.691e-05    -4.245    -4.329    -0.084     (0)  
   CaNO3+          5.051e-07   4.808e-07    -6.297    -6.318    -0.021     (0)  
   CaF+            1.870e-08   1.780e-08    -7.728    -7.750    -0.021     (0)  
   CaSO4           8.908e-10   8.908e-10    -9.050    -9.050     0.000     (0)  
   CaOH+           6.961e-11   6.626e-11   -10.157   -10.179    -0.021     (0)  
   CaCl+           5.603e-12   5.333e-12   -11.252   -11.273    -0.021     (0)  
   CaCl2           3.365e-18   3.365e-18   -17.473   -17.473     0.000     (0)  
Cl(-1)        5.642e-07
   Cl-             5.639e-07   5.364e-07    -6.249    -6.271    -0.022     (0)  
   MnCl+           2.331e-10   2.219e-10    -9.632    -9.654    -0.021     (0)  
   MgCl+           1.064e-11   1.013e-11   -10.973   -10.995    -0.021     (0)  
   BaCl+           9.940e-12   9.462e-12   -11.003   -11.024    -0.021     (0)  
   CaCl+           5.603e-12   5.333e-12   -11.252   -11.273    -0.021     (0)  
   KCl             3.156e-12   3.156e-12   -11.501   -11.501     0.000     (0)  
   NaCl            4.294e-14   4.294e-14   -13.367   -13.367     0.000     (0)  
   NiCl+           1.679e-14   1.598e-14   -13.775   -13.796    -0.021     (0)  
   HCl             1.205e-14   1.205e-14   -13.919   -13.919     0.000     (0)  
   ZnCl+           3.545e-16   3.374e-16   -15.450   -15.472    -0.021     (0)  
   Zn(OH)Cl        5.770e-17   5.770e-17   -16.239   -16.239     0.000     (0)  
   CaCl2           3.365e-18   3.365e-18   -17.473   -17.473     0.000     (0)  
   ZnCl2           2.114e-22   2.114e-22   -21.675   -21.675     0.000     (0)  
   MnCl3-          1.465e-23   1.395e-23   -22.834   -22.855    -0.021     (0)  
   ZnCl3-          6.580e-29   6.264e-29   -28.182   -28.203    -0.021     (0)  
   ZnCl4-2         3.104e-34   2.547e-34   -33.508   -33.594    -0.086     (0)  
Cl(1)         0.000e+00
   HClO            0.000e+00   0.000e+00   -41.810   -41.810     0.000     (0)  
   ClO-            0.000e+00   0.000e+00   -42.358   -42.379    -0.021     (0)  
Cl(3)         0.000e+00
   ClO2-           0.000e+00   0.000e+00   -71.361   -71.382    -0.021     (0)  
   HClO2           0.000e+00   0.000e+00   -75.212   -75.212     0.000     (0)  
Cl(5)         0.000e+00
   ClO3-           0.000e+00   0.000e+00   -86.511   -86.533    -0.022     (0)  
Cl(7)         0.000e+00
   ClO4-           0.000e+00   0.000e+00  -105.964  -105.986    -0.022     (0)  
   ZnClO4+         0.000e+00   0.000e+00  -114.114  -114.136    -0.021     (0)  
F             7.896e-05
   F-              7.845e-05   7.465e-05    -4.105    -4.127    -0.022     (0)  
   MnF+            4.101e-07   3.903e-07    -6.387    -6.409    -0.021     (0)  
   MgF+            4.577e-08   4.356e-08    -7.339    -7.361    -0.021     (0)  
   CaF+            1.870e-08   1.780e-08    -7.728    -7.750    -0.021     (0)  
   HF              1.146e-08   1.146e-08    -7.941    -7.941     0.000     (0)  
   AlF2+           5.002e-09   4.761e-09    -8.301    -8.322    -0.021     (0)  
   AlF3            4.475e-09   4.475e-09    -8.349    -8.349     0.000     (0)  
   BaF+            2.841e-09   2.704e-09    -8.547    -8.568    -0.021     (0)  
   AlF+2           1.950e-10   1.602e-10    -9.710    -9.795    -0.085     (0)  
   AlF4-           8.814e-11   8.390e-11   -10.055   -10.076    -0.021     (0)  
   NaF             3.637e-12   3.637e-12   -11.439   -11.439     0.000     (0)  
   ZnF+            4.148e-13   3.948e-13   -12.382   -12.404    -0.021     (0)  
   HF2-            2.177e-13   2.072e-13   -12.662   -12.684    -0.021     (0)  
   H2F2            3.266e-16   3.266e-16   -15.486   -15.486     0.000     (0)  
   SiF6-2          1.880e-30   1.542e-30   -29.726   -29.812    -0.086     (0)  
H(0)          1.586e-25
   H2              7.931e-26   7.935e-26   -25.101   -25.100     0.000     (0)  
K             1.842e-04
   K+              1.842e-04   1.752e-04    -3.735    -3.757    -0.022     (0)  
   KSO4-           1.931e-10   1.838e-10    -9.714    -9.736    -0.021     (0)  
   KOH             6.074e-12   6.074e-12   -11.217   -11.217     0.000     (0)  
   KCl             3.156e-12   3.156e-12   -11.501   -11.501     0.000     (0)  
   KHSO4           1.622e-17   1.622e-17   -16.790   -16.790     0.000     (0)  
Mg            2.921e-05
   Mg+2            2.917e-05   2.418e-05    -4.535    -4.617    -0.081     (0)  
   MgF+            4.577e-08   4.356e-08    -7.339    -7.361    -0.021     (0)  
   MgSO4           8.395e-10   8.395e-10    -9.076    -9.076     0.000     (0)  
   MgCl+           1.064e-11   1.013e-11   -10.973   -10.995    -0.021     (0)  
   Mg4(OH)4+4      1.321e-30   6.080e-31   -29.879   -30.216    -0.337     (0)  
Mn(2)         2.367e-04
   Mn+2            2.355e-04   1.943e-04    -3.628    -3.712    -0.084     (0)  
   MnNO3+          6.615e-07   6.297e-07    -6.179    -6.201    -0.021     (0)  
   MnF+            4.101e-07   3.903e-07    -6.387    -6.409    -0.021     (0)  
   MnOH+           5.246e-08   4.993e-08    -7.280    -7.302    -0.021     (0)  
   MnSO4           6.232e-09   6.232e-09    -8.205    -8.205     0.000     (0)  
   Mn(NO3)2        3.235e-09   3.235e-09    -8.490    -8.490     0.000     (0)  
   MnCl+           2.331e-10   2.219e-10    -9.632    -9.654    -0.021     (0)  
   Mn2(OH)3+       4.991e-11   4.751e-11   -10.302   -10.323    -0.021     (0)  
   Mn2OH+3         1.613e-11   1.039e-11   -10.792   -10.983    -0.191     (0)  
   Mn(OH)2         1.226e-12   1.226e-12   -11.912   -11.912     0.000     (0)  
   Mn(OH)3-        1.208e-17   1.150e-17   -16.918   -16.939    -0.021     (0)  
   MnCl3-          1.465e-23   1.395e-23   -22.834   -22.855    -0.021     (0)  
   Mn(OH)4-2       1.186e-24   9.735e-25   -23.926   -24.012    -0.086     (0)  
Mn(3)         8.040e-26
   Mn+3            8.040e-26   5.182e-26   -25.095   -25.286    -0.191     (0)  
Mn(6)         0.000e+00
   MnO4-2          0.000e+00   0.000e+00   -50.073   -50.159    -0.086     (0)  
Mn(7)         0.000e+00
   MnO4-           0.000e+00   0.000e+00   -55.493   -55.515    -0.022     (0)  
N(5)          2.152e-03
   NO3-            2.150e-03   2.045e-03    -2.668    -2.689    -0.022     (0)  
   BaNO3+          8.974e-07   8.542e-07    -6.047    -6.068    -0.021     (0)  
   MnNO3+          6.615e-07   6.297e-07    -6.179    -6.201    -0.021     (0)  
   CaNO3+          5.051e-07   4.808e-07    -6.297    -6.318    -0.021     (0)  
   Mn(NO3)2        3.235e-09   3.235e-09    -8.490    -8.490     0.000     (0)  
   NiNO3+          1.510e-09   1.438e-09    -8.821    -8.842    -0.021     (0)  
   HNO3            1.070e-11   1.070e-11   -10.971   -10.971     0.000     (0)  
   Ni(NO3)2        1.867e-12   1.867e-12   -11.729   -11.729     0.000     (0)  
Na            4.785e-07
   Na+             4.785e-07   4.555e-07    -6.320    -6.342    -0.021     (0)  
   NaHSiO3         8.966e-12   8.966e-12   -11.047   -11.047     0.000     (0)  
   NaF             3.637e-12   3.637e-12   -11.439   -11.439     0.000     (0)  
   NaSO4-          4.110e-13   3.912e-13   -12.386   -12.408    -0.021     (0)  
   NaCl            4.294e-14   4.294e-14   -13.367   -13.367     0.000     (0)  
   NaOH            7.571e-15   7.571e-15   -14.121   -14.121     0.000     (0)  
   NaAlO2          2.418e-15   2.418e-15   -14.616   -14.616     0.000     (0)  
Ni            3.408e-07
   Ni+2            3.393e-07   2.799e-07    -6.469    -6.553    -0.084     (0)  
   NiNO3+          1.510e-09   1.438e-09    -8.821    -8.842    -0.021     (0)  
   NiSO4           4.994e-12   4.994e-12   -11.302   -11.302     0.000     (0)  
   Ni(NO3)2        1.867e-12   1.867e-12   -11.729   -11.729     0.000     (0)  
   Ni(OH)2         2.862e-13   2.862e-13   -12.543   -12.543     0.000     (0)  
   NiCl+           1.679e-14   1.598e-14   -13.775   -13.796    -0.021     (0)  
   Ni(OH)3-        3.042e-17   2.895e-17   -16.517   -16.538    -0.021     (0)  
   Ni2OH+3         2.425e-17   1.563e-17   -16.615   -16.806    -0.191     (0)  
   Ni4(OH)4+4      2.782e-26   1.281e-26   -25.556   -25.893    -0.337     (0)  
O(0)          0.000e+00
   O2              0.000e+00   0.000e+00   -41.995   -41.995     0.000     (0)  
S(6)          1.666e-07
   SO4-2           1.584e-07   1.300e-07    -6.800    -6.886    -0.086     (0)  
   MnSO4           6.232e-09   6.232e-09    -8.205    -8.205     0.000     (0)  
   CaSO4           8.908e-10   8.908e-10    -9.050    -9.050     0.000     (0)  
   MgSO4           8.395e-10   8.395e-10    -9.076    -9.076     0.000     (0)  
   KSO4-           1.931e-10   1.838e-10    -9.714    -9.736    -0.021     (0)  
   NiSO4           4.994e-12   4.994e-12   -11.302   -11.302     0.000     (0)  
   HSO4-           1.380e-12   1.313e-12   -11.860   -11.882    -0.021     (0)  
   NaSO4-          4.110e-13   3.912e-13   -12.386   -12.408    -0.021     (0)  
   ZnSO4           1.023e-14   1.023e-14   -13.990   -13.990     0.000     (0)  
   AlSO4+          3.000e-17   2.855e-17   -16.523   -16.544    -0.021     (0)  
   KHSO4           1.622e-17   1.622e-17   -16.790   -16.790     0.000     (0)  
   Al(SO4)2-       3.027e-22   2.882e-22   -21.519   -21.540    -0.021     (0)  
   H2SO4           1.239e-22   1.239e-22   -21.907   -21.907     0.000     (0)  
Si            3.662e-04
   SiO2            3.658e-04   3.658e-04    -3.437    -3.437     0.000     (0)  
   HSiO3-          4.389e-07   4.178e-07    -6.358    -6.379    -0.021     (0)  
   NaHSiO3         8.966e-12   8.966e-12   -11.047   -11.047     0.000     (0)  
   H2SiO4-2        4.888e-13   4.011e-13   -12.311   -12.397    -0.086     (0)  
   H6(H2SiO4)4-2   4.998e-14   4.101e-14   -13.301   -13.387    -0.086     (0)  
   H4(H2SiO4)4-4   4.537e-22   2.055e-22   -21.343   -21.687    -0.344     (0)  
   SiF6-2          1.880e-30   1.542e-30   -29.726   -29.812    -0.086     (0)  
Zn            4.588e-10
   Zn+2            4.539e-10   3.744e-10    -9.343    -9.427    -0.084     (0)  
   ZnOH+           4.314e-12   4.106e-12   -11.365   -11.387    -0.021     (0)  
   ZnF+            4.148e-13   3.948e-13   -12.382   -12.404    -0.021     (0)  
   Zn(OH)2         1.758e-13   1.758e-13   -12.755   -12.755     0.000     (0)  
   ZnSO4           1.023e-14   1.023e-14   -13.990   -13.990     0.000     (0)  
   ZnCl+           3.545e-16   3.374e-16   -15.450   -15.472    -0.021     (0)  
   Zn(OH)Cl        5.770e-17   5.770e-17   -16.239   -16.239     0.000     (0)  
   Zn(OH)3-        5.726e-18   5.450e-18   -17.242   -17.264    -0.021     (0)  
   ZnCl2           2.114e-22   2.114e-22   -21.675   -21.675     0.000     (0)  
   Zn(OH)4-2       1.132e-23   9.291e-24   -22.946   -23.032    -0.086     (0)  
   ZnCl3-          6.580e-29   6.264e-29   -28.182   -28.203    -0.021     (0)  
   ZnCl4-2         3.104e-34   2.547e-34   -33.508   -33.594    -0.086     (0)  
   ZnClO4+         0.000e+00   0.000e+00  -114.114  -114.136    -0.021     (0)  

------------------------------Saturation indices-------------------------------

  Phase               SI** log IAP   log K(298 K,   1 atm)

  Afwillite       -37.82     22.14   59.96  Ca3Si2O4(OH)6
  Akermanite      -23.38     21.85   45.23  Ca2MgSi2O7
  Al             -110.09     39.83  149.91  Al
  Al(g)          -160.79     39.83  200.62  Al
  Al2(SO4)3       -64.89    -45.99   18.90  Al2(SO4)3
  Al2(SO4)3:6H2O  -47.55    -45.99    1.56  Al2(SO4)3:6H2O
  Albite           -3.98     -1.32    2.66  NaAlSi3O8
  Albite_high      -5.30     -1.32    3.98  NaAlSi3O8
  Albite_low       -3.98     -1.32    2.66  NaAlSi3O8
  AlF3             -7.78    -25.05  -17.27  AlF3
  Alum-K          -25.23    -30.20   -4.97  KAl(SO4)2:12H2O
  Alunite         -13.06    -13.53   -0.47  KAl3(OH)6(SO4)2
  Amesite-14A     -11.29     63.99   75.27  Mg4Al4Si2O10(OH)8
  Analcime         -4.44      1.62    6.06  Na.96Al.96Si2.04O6:H2O
  Analcime-dehy   -10.80      1.62   12.42  Na.96Al.96Si2.04O6
  Andalusite       -2.65     13.23   15.88  Al2SiO5
  Anhydrite        -6.87    -11.21   -4.35  CaSO4
  Anorthite        -7.02     19.46   26.48  CaAl2(SiO4)2
  Antarcticite    -20.96    -16.87    4.09  CaCl2:6H2O
  Anthophyllite   -28.29     38.19   66.48  Mg7Si8O22(OH)2
  Antigorite     -142.08    333.56  475.63  Mg48Si34O85(OH)62
  Aphthitalite    -27.50    -31.38   -3.89  NaK3(SO4)2
  Arcanite        -12.56    -14.40   -1.84  K2SO4
  Ba             -110.51     30.72  141.23  Ba
  Ba(OH)2:8H2O    -14.77      9.72   24.49  Ba(OH)2:8H2O
  Ba2Si3O8        -14.09      9.13   23.23  Ba2Si3O8
  Ba2SiO4         -28.54     16.00   44.55  Ba2SiO4
  BaCl2           -19.05    -16.82    2.23  BaCl2
  BaCl2:2H2O      -17.03    -16.82    0.21  BaCl2:2H2O
  BaCl2:H2O       -17.64    -16.82    0.82  BaCl2:H2O
  BaMnO4          -44.35    -54.44  -10.09  BaMnO4
  BaO             -38.08      9.72   47.80  BaO
  Barite           -1.15    -11.17  -10.01  BaSO4
  BaSiF6          -28.26    -60.48  -32.22  BaSiF6
  Bassanite        -7.51    -11.21   -3.71  CaSO4:0.5H2O
  Beidellite-Ca     2.95      8.40    5.44  Ca.165Al2.33Si3.67O10(OH)2
  Beidellite-H      2.31      6.80    4.49  H.33Al2.33Si3.67O10(OH)2
  Beidellite-K      2.71      7.87    5.16  K.33Al2.33Si3.67O10(OH)2
  Beidellite-Mg     2.94      8.35    5.41  Mg.165Al2.33Si3.67O10(OH)2
  Beidellite-Na     1.52      7.02    5.50  Na.33Al2.33Si3.67O10(OH)2
  Birnessite      -55.49   -141.03  -85.55  Mn8O14:5H2O
  Bischofite      -21.55    -17.16    4.39  MgCl2:6H2O
  Bixbyite         -7.61     -8.57   -0.96  Mn2O3
  Bloedite        -28.59    -31.07   -2.48  Na2Mg(SO4)2:4H2O
  Boehmite          0.78      8.33    7.55  AlO2H
  Brucite          -6.90      9.38   16.28  Mg(OH)2
  Bunsenite        -5.02      7.45   12.46  NiO
  Ca             -109.16     30.67  139.83  Ca
  Ca(g)          -134.40     30.67  165.07  Ca
  Ca-Al_Pyroxene  -13.00     22.90   35.90  CaAl2SiO6
  Ca2Al2O5:8H2O   -23.56     36.01   59.57  Ca2Al2O5:8H2O
  Ca2Cl2(OH)2:H2O -33.49     -7.20   26.29  Ca2Cl2(OH)2:H2O
  Ca3Al2O6        -67.35     45.68  113.03  Ca3Al2O6
  Ca4Al2O7:13H2O  -51.91     55.35  107.25  Ca4Al2O7:13H2O
  Ca4Al2O7:19H2O  -48.33     55.35  103.68  Ca4Al2O7:19H2O
  Ca4Cl2(OH)6:13H2O -56.18     12.14   68.33  Ca4Cl2(OH)6:13H2O
  CaAl2O4         -20.57     26.33   46.91  CaAl2O4
  CaAl2O4:10H2O   -11.66     26.33   37.99  CaAl2O4:10H2O
  CaAl4O7         -25.59     43.00   68.59  CaAl4O7
  Carnallite      -31.46    -27.18    4.27  KMgCl3:6H2O
  CaSO4:0.5H2O(beta)  -7.68    -11.21   -3.54  CaSO4:0.5H2O
  Celadonite       -0.10      7.21    7.31  KMgAlSi4O10(OH)2
  Chalcedony        0.32     -3.44   -3.76  SiO2
  Chloromagnesite -38.97    -17.16   21.82  MgCl2
  Chrysotile       -9.75     21.28   31.03  Mg3Si2O5(OH)4
  Cl2(g)          -50.53    -47.54    2.99  Cl2
  Clinochlore-14A -13.78     53.27   67.05  Mg5Al2Si3O10(OH)8
  Clinochlore-7A  -17.15     53.27   70.42  Mg5Al2Si3O10(OH)8
  Clinozoisite     -9.07     34.03   43.10  Ca2Al3Si3O12(OH)
  Coesite          -0.22     -3.44   -3.22  SiO2
  Cordierite_anhyd -17.16     34.91   52.07  Mg2Al4Si5O18
  Cordierite_hydr -14.68     34.91   49.59  Mg2Al4Si5O18:H2O
  Corundum         -1.63     16.66   18.29  Al2O3
  Cristobalite(alpha)   0.04     -3.44   -3.48  SiO2
  Cristobalite(beta)  -0.40     -3.44   -3.03  SiO2
  Diaspore          1.19      8.33    7.15  AlHO2
  Dicalcium_silicate -21.22     15.91   37.13  Ca2SiO4
  Diopside         -8.70     12.18   20.89  CaMgSi2O6
  Enstatite        -5.34      5.95   11.29  MgSiO3
  Epsomite         -9.54    -11.50   -1.96  MgSO4:7H2O
  Ettringite      -50.43     12.03   62.46  Ca6Al2(SO4)3(OH)12:26H2O
  F2(g)           -98.96    -43.25   55.71  F2
  Fluorite         -2.51    -12.58  -10.07  CaF2
  Forsterite      -12.48     15.33   27.81  Mg2SiO4
  Foshagite       -37.42     28.37   65.80  Ca4Si3O9(OH)2:0.5H2O
  Frankdicksonite  -6.77    -12.53   -5.76  BaF2
  Gehlenite       -23.65     32.57   56.22  Ca2Al2SiO7
  Gibbsite          0.59      8.33    7.74  Al(OH)3
  Gismondine       -2.79     38.92   41.72  Ca2Al4Si4O16:9H2O
  Glauberite      -25.31    -30.78   -5.47  Na2Ca(SO4)2
  Grossular       -16.41     35.37   51.78  Ca3Al2(SiO4)3
  Gypsum           -6.68    -11.21   -4.53  CaSO4:2H2O
  Gyrolite        -13.77      9.03   22.80  Ca2Si3O7(OH)2:1.5H2O
  H2(g)           -22.00    -25.10   -3.10  H2
  H2O(g)           -1.59     -0.00    1.59  H2O
  Halite          -14.18    -12.61    1.56  NaCl
  Hatrurite       -47.77     25.58   73.35  Ca3SiO5
  Hausmannite      -8.43      1.72   10.14  Mn3O4
  HCl(g)          -19.57    -13.27    6.30  HCl
  Hexahydrite      -9.78    -11.50   -1.73  MgSO4:6H2O
  Hillebrandite   -20.87     15.91   36.77  Ca2SiO3(OH)2:0.17H2O
  Hydrophilite    -28.62    -16.87   11.75  CaCl2
  Ice              -0.14     -0.00    0.14  H2O
  Illite            2.55     11.43    8.88  K0.6Mg0.25Al1.8Al0.5Si3.5O10(OH)2
  Jadeite          -6.19      2.12    8.31  NaAl(SiO3)2
  K               -57.23     13.74   70.98  K
  K(g)            -67.84     13.74   81.58  K
  K-Feldspar        1.64      1.26   -0.38  KAlSi3O8
  K2O             -77.55      6.49   84.04  K2O
  K3H(SO4)2       -28.42    -32.04   -3.62  K3H(SO4)2
  Kainite         -21.22    -21.53   -0.31  KMgClSO4:3H2O
  KAl(SO4)2       -33.47    -30.20    3.27  KAl(SO4)2
  Kalsilite        -2.71      8.14   10.85  KAlSiO4
  Kaolinite         3.07      9.79    6.72  Al2Si2O5(OH)4
  Katoite         -33.27     45.68   78.94  Ca3Al2H12O12
  Kieserite       -11.24    -11.50   -0.27  MgSO4:H2O
  KMgCl3          -48.43    -27.18   21.25  KMgCl3
  KMgCl3:2H2O     -41.15    -27.18   13.96  KMgCl3:2H2O
  Kyanite          -2.38     13.23   15.61  Al2SiO5
  Larnite         -22.52     15.91   38.42  Ca2SiO4
  Laumontite       -0.92     12.59   13.51  CaAl2Si4O12:4H2O
  Lawsonite        -2.64     19.46   22.11  CaAl2Si2O7(OH)2:H2O
  Leonite         -21.79    -25.90   -4.11  K2Mg(SO4)2:4H2O
  Lime            -22.90      9.67   32.57  CaO
  Manganite        -4.12     -4.29   -0.16  MnO(OH)
  Manganosite      -7.63     10.29   17.92  MnO
  Margarite        -4.80     36.12   40.93  CaAl4Si2O10(OH)2
  Maximum_Microcline   1.65      1.26   -0.38  KAlSi3O8
  Mayenite       -261.45    232.70  494.15  Ca12Al14O33
  Mercallite      -16.20    -17.64   -1.44  KHSO4
  Merwinite       -36.89     31.52   68.41  MgCa3(SiO4)2
  Mesolite         -0.45     13.03   13.49  Na.676Ca.657Al1.99Si3.01O10:2.647H2O
  Mg              -92.14     30.38  122.52  Mg
  Mg(g)          -111.86     30.38  142.25  Mg
  Mg1.25SO4(OH)0.5:0.5H2O -14.35     -9.16    5.20  Mg1.25SO4(OH)0.5:0.5H2O
  Mg1.5SO4(OH)    -16.02     -6.81    9.21  Mg1.5SO4(OH)
  MgCl2:2H2O      -29.89    -17.16   12.73  MgCl2:2H2O
  MgCl2:4H2O      -24.46    -17.16    7.30  MgCl2:4H2O
  MgCl2:H2O       -33.23    -17.16   16.07  MgCl2:H2O
  MgOHCl          -19.78     -3.89   15.89  MgOHCl
  MgSO4           -16.33    -11.50    4.83  MgSO4
  Mirabilite      -18.42    -19.57   -1.15  Na2SO4:10H2O
  Misenite       -109.18   -120.25  -11.08  K8H6(SO4)7
  Mn              -51.65     31.29   82.93  Mn
  Mn(OH)2(am)      -5.02     10.29   15.31  Mn(OH)2
  Mn(OH)3         -10.63     -4.29    6.34  Mn(OH)3
  MnCl2:2H2O      -20.25    -16.25    4.00  MnCl2:2H2O
  MnCl2:4H2O      -19.00    -16.25    2.75  MnCl2:4H2O
  MnCl2:H2O       -21.79    -16.25    5.54  MnCl2:H2O
  MnO2(gamma)     -10.81    -26.94  -16.13  MnO2
  MnSO4           -13.21    -10.60    2.61  MnSO4
  Monticellite    -13.91     15.62   29.53  CaMgSiO4
  Montmor-Ca        2.51      4.86    2.34  Ca.165Mg.33Al1.67Si4O10(OH)2
  Montmor-K         2.34      4.33    1.99  K.33Mg.33Al1.67Si4O10(OH)2
  Montmor-Mg        2.58      4.81    2.23  Mg.495Al1.67Si4O10(OH)2
  Montmor-Na        1.15      3.48    2.33  Na.33Mg.33Al1.67Si4O10(OH)2
  Mordenite        -1.16     -6.52   -5.36  Ca.2895Na.361Al.94Si5.06O12:3.468H2O
  Mordenite-dehy  -16.29     -6.52    9.77  Ca.2895Na.361Al.94Si5.06O12
  Morenosite      -11.38    -13.44   -2.06  NiSO4:7H2O
  Muscovite         4.48     17.93   13.45  KAl3Si3O10(OH)2
  Na              -56.21     11.16   67.37  Na
  Na(g)           -69.70     11.16   80.86  Na
  Na2O            -66.10      1.32   67.42  Na2O
  Na2SiO3         -24.32     -2.12   22.20  Na2SiO3
  Na3H(SO4)2      -38.91    -39.80   -0.89  Na3H(SO4)2
  Na4Ca(SO4)3:2H2O -44.46    -50.35   -5.89  Na4Ca(SO4)3:2H2O
  Na4SiO4         -71.40     -0.80   70.60  Na4SiO4
  Na6Si2O7       -104.45     -2.92  101.53  Na6Si2O7
  Natrolite       -10.72      7.67   18.39  Na2Al2Si3O10:2H2O
  Natrosilite     -23.62     -5.56   18.07  Na2Si2O5
  Nepheline        -8.20      5.55   13.75  NaAlSiO4
  Ni              -22.53     28.44   50.98  Ni
  Ni(OH)2          -5.30      7.45   12.75  Ni(OH)2
  Ni2SiO4          -2.83     11.46   14.29  Ni2SiO4
  Nickelbischofite -22.25    -19.09    3.15  NiCl2:6H2O
  NiCl2           -27.69    -19.09    8.60  NiCl2
  NiCl2:2H2O      -23.02    -19.09    3.92  NiCl2:2H2O
  NiCl2:4H2O      -22.94    -19.09    3.85  NiCl2:4H2O
  NiF2            -15.63    -14.81    0.82  NiF2
  NiF2:4H2O       -10.75    -14.81   -4.06  NiF2:4H2O
  NiSO4           -18.72    -13.44    5.28  NiSO4
  NiSO4:6H2O(alpha) -11.42    -13.44   -2.02  NiSO4:6H2O
  Niter            -6.22     -6.45   -0.22  KNO3
  Nitrobarite      -7.17     -9.66   -2.49  Ba(NO3)2
  NO2(g)           -7.54      0.81    8.35  NO2
  O2(g)           -39.10    -42.00   -2.89  O2
  Okenite          -7.52      2.80   10.31  CaSi2O4(OH)2:H2O
  Oxychloride-Mg  -20.34      5.50   25.83  Mg2Cl(OH)3:4H2O
  Paragonite       -2.04     15.34   17.38  NaAl3Si3O10(OH)2
  Pargasite       -39.79     61.91  101.70  NaCa2Al3Mg4Si6O22(OH)2
  Pentahydrite    -10.12    -11.50   -1.39  MgSO4:5H2O
  Periclase       -11.94      9.38   21.33  MgO
  Phlogopite       -7.88     29.42   37.30  KAlMg3Si3O10(OH)2
  Picromerite     -21.46    -25.90   -4.44  K2Mg(SO4)2:6H2O
  Polyhalite      -34.02    -48.33  -14.31  K2MgCa2(SO4)4:2H2O
  Portlandite     -12.88      9.67   22.55  Ca(OH)2
  Prehnite         -7.10     25.70   32.79  Ca2Al2Si3O10(OH)2
  Pseudowollastonite  -7.73      6.23   13.96  CaSiO3
  Pyrolusite       -9.27    -26.94  -17.66  MnO2
  Pyrophyllite      2.63      2.92    0.29  Al2Si4O10(OH)2
  Quartz            0.59     -3.44   -4.03  SiO2
  Rankinite       -29.68     22.14   51.82  Ca3Si2O7
  Rhodonite        -2.84      6.85    9.69  MnSiO3
  Sanbornite       -6.56      2.85    9.41  BaSi2O5
  Sanidine_high     0.45      1.26    0.82  KAlSi3O8
  Saponite-Ca      -6.26     19.88   26.14  Ca.165Mg3Al.33Si3.67O10(OH)2
  Saponite-H       -6.90     18.29   25.18  H.33Mg3Al.33Si3.67O10(OH)2
  Saponite-K       -6.50     19.36   25.86  K.33Mg3Al.33Si3.67O10(OH)2
  Saponite-Mg      -6.26     19.84   26.10  Mg3.165Al.33Si3.67O10(OH)2
  Saponite-Na      -7.69     18.50   26.20  Na.33Mg3Al.33Si3.67O10(OH)2
  Scacchite       -24.99    -16.25    8.74  MnCl2
  Scolecite         0.28     16.02   15.75  CaAl2Si3O10:3H2O
  Sellaite         -3.43    -12.87   -9.44  MgF2
  Sepiolite       -13.31     16.91   30.22  Mg4Si6O15(OH)2:6H2O
  Si             -110.30     38.56  148.86  Si
  Si(g)          -181.38     38.56  219.94  Si
  SiF4(g)         -32.70    -47.94  -15.24  SiF4
  Sillimanite      -3.02     13.23   16.24  Al2SiO5
  SiO2(am)         -0.69     -3.44   -2.74  SiO2
  Spinel          -11.56     26.05   37.61  Al2MgO4
  Starkeyite      -10.50    -11.50   -1.00  MgSO4:4H2O
  Stilbite          3.88      4.69    0.81  Ca1.019Na.136K.006Al2.18Si6.82O18:7.33H2O
  Sylvite         -10.85    -10.03    0.83  KCl
  Syngenite       -18.01    -25.61   -7.60  K2Ca(SO4)2:H2O
  Tachyhydrite    -68.33    -51.19   17.14  Mg2CaCl6:12H2O
  Talc             -6.58     14.40   20.99  Mg3Si4O10(OH)2
  Tephroite        -5.88     17.14   23.02  Mn2SiO4
  Thenardite      -19.21    -19.57   -0.36  Na2SO4
  Tobermorite-11A -37.65     27.74   65.39  Ca5Si6H11O22.5
  Tobermorite-14A -35.87     27.74   63.61  Ca5Si6H21O27.5
  Tobermorite-9A  -41.12     27.74   68.86  Ca5Si6H6O20
  Todorokite      -44.05    -89.87  -45.82  Mn7O12:3H2O
  Tremolite       -22.16     38.77   60.93  Ca2Mg5Si8O22(OH)2
  Tridymite         0.41     -3.44   -3.84  SiO2
  Wairakite        -5.33     12.59   17.92  CaAl2Si4O10(OH)4
  Wollastonite     -7.49      6.23   13.72  CaSiO3
  Xonotlite       -54.33     37.41   91.74  Ca6Si6O17(OH)2
  Zincite          -6.63      4.57   11.20  ZnO
  Zn              -43.22     25.57   68.79  Zn
  Zn(ClO4)2:6H2O -227.03   -221.40    5.63  Zn(ClO4)2:6H2O
  Zn(g)           -59.84     25.57   85.41  Zn
  Zn(NO3)2:6H2O   -18.21    -14.81    3.40  Zn(NO3)2:6H2O
  Zn(OH)2(beta)    -7.36      4.57   11.93  Zn(OH)2
  Zn(OH)2(epsilon)  -7.09      4.57   11.66  Zn(OH)2
  Zn(OH)2(gamma)   -7.31      4.57   11.88  Zn(OH)2
  Zn2(OH)3Cl      -19.42     -4.12   15.29  Zn2(OH)3Cl
  Zn2SiO4          -8.13      5.71   13.84  Zn2SiO4
  Zn2SO4(OH)2     -19.32    -11.74    7.58  Zn2SO4(OH)2
  Zn3O(SO4)2      -47.14    -28.05   19.09  Zn3O(SO4)2
  Zn5(NO3)2(OH)8  -39.18      3.49   42.67  Zn5(NO3)2(OH)8
  ZnCl2           -29.05    -21.97    7.08  ZnCl2
  ZnF2            -17.19    -17.68   -0.49  ZnF2
  ZnSO4           -19.85    -16.31    3.53  ZnSO4
  ZnSO4:6H2O      -14.61    -16.31   -1.70  ZnSO4:6H2O
  ZnSO4:7H2O      -14.44    -16.31   -1.88  ZnSO4:7H2O
  ZnSO4:H2O       -15.76    -16.31   -0.55  ZnSO4:H2O
  Zoisite          -9.11     34.03   43.14  Ca2Al3(SiO4)3OH

**For a gas, SI = log10(fugacity). Fugacity = pressure * phi / 1 atm.
  For ideal gases, phi = 1.

Initial solution 3.	 test3 

-----------------------------Solution composition------------------------------

	Elements           Molality       Moles

	Al                2.966e-06   2.966e-06
	Alkalinity        3.451e-03   3.451e-03
	Ca                5.491e-04   5.491e-04
	Cl                2.539e-04   2.539e-04
	Fe                4.836e-06   4.836e-06
	K                 4.605e-05   4.605e-05
	Mg                1.687e-04   1.687e-04
	Mn                2.003e-06   2.003e-06
	N(-3)             1.928e-05   1.928e-05
	N(3)              1.500e-05   1.500e-05
	N(5)              1.578e-04   1.578e-04
	Na                2.393e-03   2.393e-03
	P                 1.689e-04   1.689e-04
	S(6)              1.013e-04   1.013e-04

----------------------------Description of solution----------------------------

                                       pH  =   7.000    
                                       pe  =   4.000    
                        Activity of water  =   1.000
                 Ionic strength (mol/kgw)  =   4.748e-03
                       Mass of water (kg)  =   1.000e+00
                    Total carbon (mol/kg)  =   3.863e-03
                       Total CO2 (mol/kg)  =   3.863e-03
                         Temperature (°C)  =  25.00
                  Electrical balance (eq)  =  -1.651e-04
 Percent error, 100*(Cat-|An|)/(Cat+|An|)  =  -2.11
                               Iterations  =   9
                                  Total H  = 1.110542e+02
                                  Total O  = 5.553783e+01

---------------------------------Redox couples---------------------------------

	Redox couple             pe  Eh (volts)

	N(-3)/N(3)           5.8819      0.3479
	N(-3)/N(5)           6.2596      0.3703
	N(3)/N(5)            7.3930      0.4373

----------------------------Distribution of species----------------------------

                                               Log       Log       Log    mole V
   Species          Molality    Activity  Molality  Activity     Gamma   cm³/mol

   H+              1.069e-07   1.000e-07    -6.971    -7.000    -0.029      0.00
   OH-             1.038e-07   9.633e-08    -6.984    -7.016    -0.032     (0)  
   H2O             5.553e+01   9.999e-01     1.744    -0.000     0.000     18.07
Al            2.966e-06
   AlO2-           2.278e-06   2.116e-06    -5.642    -5.675    -0.032     (0)  
   HAlO2           6.176e-07   6.176e-07    -6.209    -6.209     0.000     (0)  
   Al(OH)2+        4.570e-08   4.244e-08    -7.340    -7.372    -0.032     (0)  
   AlHPO4+         2.120e-08   1.969e-08    -7.674    -7.706    -0.032     (0)  
   AlOH+2          2.453e-09   1.828e-09    -8.610    -8.738    -0.128     (0)  
   NaAlO2          8.927e-10   8.927e-10    -9.049    -9.049     0.000     (0)  
   Al+3            2.992e-11   1.632e-11   -10.524   -10.787    -0.263     (0)  
   AlSO4+          1.255e-12   1.166e-12   -11.901   -11.933    -0.032     (0)  
   Al13O4(OH)24+7   3.573e-14   1.079e-15   -13.447   -14.967    -1.520     (0)  
   Al(SO4)2-       6.804e-15   6.319e-15   -14.167   -14.199    -0.032     (0)  
   Al2(OH)2+4      1.723e-15   5.433e-16   -14.764   -15.265    -0.501     (0)  
   Al3(OH)4+5      3.411e-18   5.721e-19   -17.467   -18.242    -0.775     (0)  
   AlH2PO4+2       1.324e-19   9.867e-20   -18.878   -19.006    -0.128     (0)  
C(4)          3.863e-03
   HCO3-           3.152e-03   2.927e-03    -2.501    -2.534    -0.032     (0)  
   CO2             6.782e-04   6.790e-04    -3.169    -3.168     0.001     (0)  
   CaHCO3+         1.456e-05   1.352e-05    -4.837    -4.869    -0.032     (0)  
   NaHCO3          9.261e-06   9.261e-06    -5.033    -5.033     0.000     (0)  
   MgHCO3+         4.373e-06   4.061e-06    -5.359    -5.391    -0.032     (0)  
   FeHCO3+         1.791e-06   1.663e-06    -5.747    -5.779    -0.032     (0)  
   CO3-2           1.743e-06   1.299e-06    -5.759    -5.887    -0.128     (0)  
   CaCO3           1.173e-06   1.173e-06    -5.931    -5.931     0.000     (0)  
   MgCO3           1.641e-07   1.641e-07    -6.785    -6.785     0.000     (0)  
   FeCO3           7.982e-08   7.982e-08    -7.098    -7.098     0.000     (0)  
   MnCO3           5.669e-08   5.669e-08    -7.246    -7.246     0.000     (0)  
   MnHCO3+         2.992e-08   2.779e-08    -7.524    -7.556    -0.032     (0)  
   NaCO3-          1.082e-08   1.005e-08    -7.966    -7.998    -0.032     (0)  
   FeCO3+          8.382e-12   7.785e-12   -11.077   -11.109    -0.032     (0)  
Ca            5.491e-04
   Ca+2            5.185e-04   3.898e-04    -3.285    -3.409    -0.124     (0)  
   CaHCO3+         1.456e-05   1.352e-05    -4.837    -4.869    -0.032     (0)  
   CaHPO4          1.029e-05   1.029e-05    -4.988    -4.988     0.000     (0)  
   CaSO4           3.976e-06   3.976e-06    -5.401    -5.401     0.000     (0)  
   CaCO3           1.173e-06   1.173e-06    -5.931    -5.931     0.000     (0)  
   CaNO3+          3.073e-07   2.854e-07    -6.512    -6.545    -0.032     (0)  
   CaPO4-          2.771e-07   2.574e-07    -6.557    -6.589    -0.032     (0)  
   CaCl+           2.094e-08   1.944e-08    -7.679    -7.711    -0.032     (0)  
   CaP2O7-2        1.370e-09   1.018e-09    -8.863    -8.992    -0.129     (0)  
   CaOH+           5.928e-10   5.506e-10    -9.227    -9.259    -0.032     (0)  
   CaCl2           5.382e-12   5.382e-12   -11.269   -11.269     0.000     (0)  
   CaH2PO4+        5.064e-14   4.703e-14   -13.296   -13.328    -0.032     (0)  
Cl(-1)        2.539e-04
   Cl-             2.538e-04   2.353e-04    -3.596    -3.628    -0.033     (0)  
   NaCl            9.149e-08   9.149e-08    -7.039    -7.039     0.000     (0)  
   MgCl+           2.363e-08   2.195e-08    -7.626    -7.659    -0.032     (0)  
   CaCl+           2.094e-08   1.944e-08    -7.679    -7.711    -0.032     (0)  
   MnCl+           6.729e-10   6.249e-10    -9.172    -9.204    -0.032     (0)  
   KCl             3.372e-10   3.372e-10    -9.472    -9.472     0.000     (0)  
   FeCl+           1.999e-10   1.856e-10    -9.699    -9.731    -0.032     (0)  
   CaCl2           5.382e-12   5.382e-12   -11.269   -11.269     0.000     (0)  
   HCl             5.286e-12   5.286e-12   -11.277   -11.277     0.000     (0)  
   FeCl2           2.344e-16   2.344e-16   -15.630   -15.630     0.000     (0)  
   MnCl3-          8.141e-18   7.561e-18   -17.089   -17.121    -0.032     (0)  
   FeCl+2          5.462e-20   4.070e-20   -19.263   -19.390    -0.128     (0)  
   FeCl2+          8.350e-21   7.755e-21   -20.078   -20.110    -0.032     (0)  
   FeCl4-2         5.050e-23   3.752e-23   -22.297   -22.426    -0.129     (0)  
   FeCl4-          5.560e-31   5.164e-31   -30.255   -30.287    -0.032     (0)  
Cl(1)         8.771e-40
   HClO            6.798e-40   6.798e-40   -39.168   -39.168     0.000     (0)  
   ClO-            1.974e-40   1.833e-40   -39.705   -39.737    -0.032     (0)  
Cl(3)         0.000e+00
   ClO2-           0.000e+00   0.000e+00   -68.708   -68.740    -0.032     (0)  
   HClO2           0.000e+00   0.000e+00   -72.570   -72.570     0.000     (0)  
Cl(5)         0.000e+00
   ClO3-           0.000e+00   0.000e+00   -83.858   -83.891    -0.032     (0)  
Cl(7)         0.000e+00
   ClO4-           0.000e+00   0.000e+00  -103.311  -103.344    -0.032     (0)  
Fe(2)         3.556e-06
   FeHCO3+         1.791e-06   1.663e-06    -5.747    -5.779    -0.032     (0)  
   Fe+2            1.440e-06   1.083e-06    -5.842    -5.966    -0.124     (0)  
   FeHPO4          2.070e-07   2.070e-07    -6.684    -6.684     0.000     (0)  
   FeCO3           7.982e-08   7.982e-08    -7.098    -7.098     0.000     (0)  
   FePO4-          2.271e-08   2.109e-08    -7.644    -7.676    -0.032     (0)  
   FeSO4           1.198e-08   1.198e-08    -7.922    -7.922     0.000     (0)  
   FeOH+           3.686e-09   3.423e-09    -8.433    -8.466    -0.032     (0)  
   FeCl+           1.999e-10   1.856e-10    -9.699    -9.731    -0.032     (0)  
   Fe(OH)2         2.719e-13   2.719e-13   -12.566   -12.566     0.000     (0)  
   FeH2PO4+        2.806e-15   2.606e-15   -14.552   -14.584    -0.032     (0)  
   FeCl2           2.344e-16   2.344e-16   -15.630   -15.630     0.000     (0)  
   Fe(OH)3-        1.165e-16   1.082e-16   -15.934   -15.966    -0.032     (0)  
   FeCl4-2         5.050e-23   3.752e-23   -22.297   -22.426    -0.129     (0)  
   Fe(OH)4-2       1.456e-24   1.082e-24   -23.837   -23.966    -0.129     (0)  
Fe(3)         1.280e-06
   Fe(OH)3         1.038e-06   1.038e-06    -5.984    -5.984     0.000     (0)  
   Fe(OH)2+        2.389e-07   2.219e-07    -6.622    -6.654    -0.032     (0)  
   Fe(OH)4-        2.806e-09   2.606e-09    -8.552    -8.584    -0.032     (0)  
   FeHPO4+         8.125e-10   7.546e-10    -9.090    -9.122    -0.032     (0)  
   FeOH+2          8.992e-11   6.701e-11   -10.046   -10.174    -0.128     (0)  
   FeCO3+          8.382e-12   7.785e-12   -11.077   -11.109    -0.032     (0)  
   Fe+3            1.903e-15   1.038e-15   -14.721   -14.984    -0.263     (0)  
   FeNO2+2         2.736e-17   2.039e-17   -16.563   -16.691    -0.128     (0)  
   FeSO4+          7.550e-18   7.012e-18   -17.122   -17.154    -0.032     (0)  
   FeNO3+2         2.034e-18   1.516e-18   -17.692   -17.819    -0.128     (0)  
   Fe2(OH)2+4      3.832e-19   1.209e-19   -18.417   -18.918    -0.501     (0)  
   FeCl+2          5.462e-20   4.070e-20   -19.263   -19.390    -0.128     (0)  
   Fe(SO4)2-       8.912e-21   8.277e-21   -20.050   -20.082    -0.032     (0)  
   FeCl2+          8.350e-21   7.755e-21   -20.078   -20.110    -0.032     (0)  
   FeH2PO4+2       9.895e-23   7.374e-23   -22.005   -22.132    -0.128     (0)  
   Fe3(OH)4+5      3.339e-23   5.602e-24   -22.476   -23.252    -0.775     (0)  
   FeCl4-          5.560e-31   5.164e-31   -30.255   -30.287    -0.032     (0)  
H(0)          1.585e-25
   H2              7.926e-26   7.935e-26   -25.101   -25.100     0.001     (0)  
K             4.605e-05
   K+              4.601e-05   4.267e-05    -4.337    -4.370    -0.033     (0)  
   KSO4-           2.589e-08   2.405e-08    -7.587    -7.619    -0.032     (0)  
   KHPO4-          1.330e-08   1.235e-08    -7.876    -7.908    -0.032     (0)  
   KCl             3.372e-10   3.372e-10    -9.472    -9.472     0.000     (0)  
   KOH             1.479e-12   1.479e-12   -11.830   -11.830     0.000     (0)  
   KP2O7-3         8.194e-15   4.197e-15   -14.086   -14.377    -0.291     (0)  
   KHSO4           2.122e-15   2.122e-15   -14.673   -14.673     0.000     (0)  
Mg            1.687e-04
   Mg+2            1.572e-04   1.195e-04    -3.804    -3.923    -0.119     (0)  
   MgHPO4          4.664e-06   4.664e-06    -5.331    -5.331     0.000     (0)  
   MgHCO3+         4.373e-06   4.061e-06    -5.359    -5.391    -0.032     (0)  
   MgSO4           2.228e-06   2.228e-06    -5.652    -5.652     0.000     (0)  
   MgCO3           1.641e-07   1.641e-07    -6.785    -6.785     0.000     (0)  
   MgPO4-          1.143e-07   1.062e-07    -6.942    -6.974    -0.032     (0)  
   MgCl+           2.363e-08   2.195e-08    -7.626    -7.659    -0.032     (0)  
   MgP2O7-2        1.243e-09   9.236e-10    -8.905    -9.035    -0.129     (0)  
   MgH2PO4+        2.824e-14   2.623e-14   -13.549   -13.581    -0.032     (0)  
   Mg4(OH)4+4      1.148e-27   3.621e-28   -26.940   -27.441    -0.501     (0)  
Mn(2)         2.003e-06
   Mn+2            1.659e-06   1.247e-06    -5.780    -5.904    -0.124     (0)  
   MnHPO4          2.277e-07   2.277e-07    -6.643    -6.643     0.000     (0)  
   MnCO3           5.669e-08   5.669e-08    -7.246    -7.246     0.000     (0)  
   MnHCO3+         2.992e-08   2.779e-08    -7.524    -7.556    -0.032     (0)  
   MnSO4           2.148e-08   2.148e-08    -7.668    -7.668     0.000     (0)  
   MnPO4-          4.761e-09   4.422e-09    -8.322    -8.354    -0.032     (0)  
   MnH2PO4+        2.317e-09   2.152e-09    -8.635    -8.667    -0.032     (0)  
   MnCl+           6.729e-10   6.249e-10    -9.172    -9.204    -0.032     (0)  
   MnOH+           3.451e-10   3.205e-10    -9.462    -9.494    -0.032     (0)  
   MnNO3+          3.108e-10   2.887e-10    -9.507    -9.540    -0.032     (0)  
[...]
   FeOH+2          2.551e-10   1.773e-10    -9.593    -9.751    -0.158     (0)  
   FeHPO4+         5.284e-11   4.822e-11   -10.277   -10.317    -0.040     (0)  
   FeCO3+          1.981e-11   1.808e-11   -10.703   -10.743    -0.040     (0)  
   Fe+3            5.727e-15   2.747e-15   -14.242   -14.561    -0.319     (0)  
   FeSO4+          5.993e-17   5.468e-17   -16.222   -16.262    -0.040     (0)  
   FeNO3+2         1.751e-17   1.217e-17   -16.757   -16.915    -0.158     (0)  
   Fe2(OH)2+4      3.503e-18   8.465e-19   -17.456   -18.072    -0.617     (0)  
   FeNO2+2         1.190e-18   8.274e-19   -17.924   -18.082    -0.158     (0)  
   FeCl+2          8.790e-19   6.111e-19   -18.056   -18.214    -0.158     (0)  
   FeCl2+          7.237e-19   6.604e-19   -18.140   -18.180    -0.040     (0)  
   Fe(SO4)2-       2.084e-19   1.902e-19   -18.681   -18.721    -0.040     (0)  
   Fe3(OH)4+5      9.300e-22   1.038e-22   -21.032   -21.984    -0.952     (0)  
   FeH2PO4+2       6.778e-24   4.712e-24   -23.169   -23.327    -0.158     (0)  
   FeCl4-          1.551e-27   1.415e-27   -26.809   -26.849    -0.040     (0)  
H(0)          1.584e-25
   H2              7.920e-26   7.935e-26   -25.101   -25.100     0.001     (0)  
K             9.467e-05
   K+              9.451e-05   8.603e-05    -4.025    -4.065    -0.041     (0)  
   KSO4-           1.566e-07   1.429e-07    -6.805    -6.845    -0.040     (0)  
   KCl             3.857e-09   3.857e-09    -8.414    -8.414     0.000     (0)  
   KHPO4-          6.588e-10   6.012e-10    -9.181    -9.221    -0.040     (0)  
   KOH             2.983e-12   2.983e-12   -11.525   -11.525     0.000     (0)  
   KHSO4           1.261e-14   1.261e-14   -13.899   -13.899     0.000     (0)  
   KP2O7-3         1.131e-17   4.934e-18   -16.947   -17.307    -0.360     (0)  
Mg            2.165e-04
   Mg+2            2.033e-04   1.456e-04    -3.692    -3.837    -0.145     (0)  
   MgSO4           7.998e-06   7.998e-06    -5.097    -5.097     0.000     (0)  
   MgHCO3+         4.758e-06   4.342e-06    -5.323    -5.362    -0.040     (0)  
   MgCO3           1.754e-07   1.754e-07    -6.756    -6.756     0.000     (0)  
   MgCl+           1.663e-07   1.517e-07    -6.779    -6.819    -0.040     (0)  
   MgHPO4          1.372e-07   1.372e-07    -6.863    -6.863     0.000     (0)  
   MgPO4-          3.423e-09   3.123e-09    -8.466    -8.505    -0.040     (0)  
   MgP2O7-2        9.482e-13   6.561e-13   -12.023   -12.183    -0.160     (0)  
   MgH2PO4+        8.456e-16   7.716e-16   -15.073   -15.113    -0.040     (0)  
   Mg4(OH)4+4      3.303e-27   7.982e-28   -26.481   -27.098    -0.617     (0)  
Mn(2)         2.731e-06
   Mn+2            2.517e-06   1.774e-06    -5.599    -5.751    -0.152     (0)  
   MnSO4           9.003e-08   9.003e-08    -7.046    -7.046     0.000     (0)  
   MnCO3           7.074e-08   7.074e-08    -7.150    -7.150     0.000     (0)  
   MnHCO3+         3.800e-08   3.468e-08    -7.420    -7.460    -0.040     (0)  
   MnHPO4          7.819e-09   7.819e-09    -8.107    -8.107     0.000     (0)  
   MnCl+           5.525e-09   5.041e-09    -8.258    -8.297    -0.040     (0)  
   MnNO3+          1.365e-09   1.246e-09    -8.865    -8.905    -0.040     (0)  
   MnOH+           4.995e-10   4.558e-10    -9.301    -9.341    -0.040     (0)  
   MnPO4-          1.664e-10   1.518e-10    -9.779    -9.819    -0.040     (0)  
   MnH2PO4+        8.097e-11   7.389e-11   -10.092   -10.131    -0.040     (0)  
   Mn(NO3)2        1.387e-12   1.387e-12   -11.858   -11.858     0.000     (0)  
   Mn(OH)2         1.119e-14   1.119e-14   -13.951   -13.951     0.000     (0)  
   Mn2(OH)3+       4.337e-15   3.958e-15   -14.363   -14.403    -0.040     (0)  
   MnCl3-          2.151e-15   1.963e-15   -14.667   -14.707    -0.040     (0)  
   Mn2OH+3         1.944e-15   8.662e-16   -14.711   -15.062    -0.351     (0)  
   Mn(OH)3-        1.150e-19   1.049e-19   -18.939   -18.979    -0.040     (0)  
   Mn(OH)4-2       1.284e-26   8.883e-27   -25.892   -26.051    -0.160     (0)  
Mn(3)         1.062e-27
   Mn+3            1.062e-27   4.730e-28   -26.974   -27.325    -0.351     (0)  
Mn(6)         0.000e+00
   MnO4-2          0.000e+00   0.000e+00   -52.038   -52.198    -0.160     (0)  
Mn(7)         0.000e+00
   MnO4-           0.000e+00   0.000e+00   -57.514   -57.555    -0.040     (0)  
N(-3)         9.999e-06
   NH4+            9.947e-06   9.043e-06    -5.002    -5.044    -0.041     (0)  
   NH3             5.204e-08   5.204e-08    -7.284    -7.284     0.000     (0)  
   NH4SO4-         1.022e-17   9.326e-18   -16.991   -17.030    -0.040     (0)  
N(3)          2.343e-07
   NO2-            2.342e-07   2.132e-07    -6.630    -6.671    -0.041     (0)  
   HNO2            3.639e-11   3.639e-11   -10.439   -10.439     0.000     (0)  
   FeNO2+2         1.190e-18   8.274e-19   -17.924   -18.082    -0.158     (0)  
N(5)          4.900e-04
   NO3-            4.868e-04   4.431e-04    -3.313    -3.353    -0.041     (0)  
   CaNO3+          3.146e-06   2.871e-06    -5.502    -5.542    -0.040     (0)  
   MnNO3+          1.365e-09   1.246e-09    -8.865    -8.905    -0.040     (0)  
   HNO3            2.318e-12   2.318e-12   -11.635   -11.635     0.000     (0)  
   Mn(NO3)2        1.387e-12   1.387e-12   -11.858   -11.858     0.000     (0)  
   FeNO3+2         1.751e-17   1.217e-17   -16.757   -16.915    -0.158     (0)  
Na            9.443e-04
   Na+             9.396e-04   8.574e-04    -3.027    -3.067    -0.040     (0)  
   NaHCO3          3.150e-06   3.150e-06    -5.502    -5.502     0.000     (0)  
   NaSO4-          1.277e-06   1.166e-06    -5.894    -5.933    -0.040     (0)  
   NaCl            2.012e-07   2.012e-07    -6.696    -6.696     0.000     (0)  
   NaHPO4-         9.063e-09   8.270e-09    -8.043    -8.082    -0.040     (0)  
   NaCO3-          3.745e-09   3.418e-09    -8.426    -8.466    -0.040     (0)  
   NaOH            1.425e-11   1.425e-11   -10.846   -10.846     0.000     (0)  
   NaAlO2          8.593e-12   8.593e-12   -11.066   -11.066     0.000     (0)  
   NaHP2O7-2       1.179e-15   8.161e-16   -14.928   -15.088    -0.160     (0)  
   NaP2O7-3        9.244e-17   4.033e-17   -16.034   -16.394    -0.360     (0)  
   Na2P2O7-2       3.970e-18   2.747e-18   -17.401   -17.561    -0.160     (0)  
O(0)          0.000e+00
   O2              0.000e+00   0.000e+00   -41.996   -41.995     0.001     (0)  
P(-3)         0.000e+00
   PH4+            0.000e+00   0.000e+00  -155.646  -155.686    -0.040     (0)  
P(5)          4.845e-06
   H2PO4-          2.149e-06   1.961e-06    -5.668    -5.707    -0.040     (0)  
   HPO4-2          1.676e-06   1.160e-06    -5.776    -5.936    -0.160     (0)  
   CaHPO4          8.238e-07   8.238e-07    -6.084    -6.084     0.000     (0)  
   MgHPO4          1.372e-07   1.372e-07    -6.863    -6.863     0.000     (0)  
   CaPO4-          2.258e-08   2.061e-08    -7.646    -7.686    -0.040     (0)  
   FeHPO4          1.323e-08   1.323e-08    -7.879    -7.879     0.000     (0)  
   NaHPO4-         9.063e-09   8.270e-09    -8.043    -8.082    -0.040     (0)  
   MnHPO4          7.819e-09   7.819e-09    -8.107    -8.107     0.000     (0)  
   MgPO4-          3.423e-09   3.123e-09    -8.466    -8.505    -0.040     (0)  
   FePO4-          1.477e-09   1.348e-09    -8.831    -8.870    -0.040     (0)  
   KHPO4-          6.588e-10   6.012e-10    -9.181    -9.221    -0.040     (0)  
   MnPO4-          1.664e-10   1.518e-10    -9.779    -9.819    -0.040     (0)  
   MnH2PO4+        8.097e-11   7.389e-11   -10.092   -10.131    -0.040     (0)  
   FeHPO4+         5.284e-11   4.822e-11   -10.277   -10.317    -0.040     (0)  
   H3PO4           3.021e-11   3.021e-11   -10.520   -10.520     0.000     (0)  
   AlHPO4+         1.294e-11   1.180e-11   -10.888   -10.928    -0.040     (0)  
   PO4-3           1.205e-11   5.256e-12   -10.919   -11.279    -0.360     (0)  
   CaP2O7-2        2.843e-12   1.967e-12   -11.546   -11.706    -0.160     (0)  
   MgP2O7-2        9.482e-13   6.561e-13   -12.023   -12.183    -0.160     (0)  
   HP2O7-3         9.769e-14   4.262e-14   -13.010   -13.370    -0.360     (0)  
   H2P2O7-2        2.548e-14   1.763e-14   -13.594   -13.754    -0.160     (0)  
   CaH2PO4+        4.126e-15   3.765e-15   -14.384   -14.424    -0.040     (0)  
   NaHP2O7-2       1.179e-15   8.161e-16   -14.928   -15.088    -0.160     (0)  
   P2O7-4          1.141e-15   2.611e-16   -14.943   -15.583    -0.641     (0)  
   MgH2PO4+        8.456e-16   7.716e-16   -15.073   -15.113    -0.040     (0)  
   FeH2PO4+        1.825e-16   1.665e-16   -15.739   -15.779    -0.040     (0)  
   NaP2O7-3        9.244e-17   4.033e-17   -16.034   -16.394    -0.360     (0)  
   KP2O7-3         1.131e-17   4.934e-18   -16.947   -17.307    -0.360     (0)  
   Na2P2O7-2       3.970e-18   2.747e-18   -17.401   -17.561    -0.160     (0)  
   H3P2O7-         4.440e-19   4.051e-19   -18.353   -18.392    -0.040     (0)  
   AlH2PO4+2       8.510e-23   5.916e-23   -22.070   -22.228    -0.158     (0)  
   FeH2PO4+2       6.778e-24   4.712e-24   -23.169   -23.327    -0.158     (0)  
   H4P2O7          1.190e-24   1.190e-24   -23.924   -23.924     0.000     (0)  
S(6)          3.458e-04
   SO4-2           2.973e-04   2.057e-04    -3.527    -3.687    -0.160     (0)  
   CaSO4           3.885e-05   3.885e-05    -4.411    -4.411     0.000     (0)  
   MgSO4           7.998e-06   7.998e-06    -5.097    -5.097     0.000     (0)  
   NaSO4-          1.277e-06   1.166e-06    -5.894    -5.933    -0.040     (0)  
   KSO4-           1.566e-07   1.429e-07    -6.805    -6.845    -0.040     (0)  
   FeSO4           9.343e-08   9.343e-08    -7.030    -7.030     0.000     (0)  
   MnSO4           9.003e-08   9.003e-08    -7.046    -7.046     0.000     (0)  
   HSO4-           2.277e-09   2.078e-09    -8.643    -8.682    -0.040     (0)  
   AlSO4+          9.350e-14   8.532e-14   -13.029   -13.069    -0.040     (0)  
   KHSO4           1.261e-14   1.261e-14   -13.899   -13.899     0.000     (0)  
   Al(SO4)2-       1.493e-15   1.363e-15   -14.826   -14.866    -0.040     (0)  
   FeSO4+          5.993e-17   5.468e-17   -16.222   -16.262    -0.040     (0)  
   NH4SO4-         1.022e-17   9.326e-18   -16.991   -17.030    -0.040     (0)  
   Fe(SO4)2-       2.084e-19   1.902e-19   -18.681   -18.721    -0.040     (0)  
   H2SO4           1.961e-19   1.961e-19   -18.708   -18.708     0.000     (0)  

------------------------------Saturation indices-------------------------------

  Phase               SI** log IAP   log K(298 K,   1 atm)

  Al             -109.81     40.10  149.91  Al
  Al(g)          -160.51     40.10  200.62  Al
  Al2(SO4)3       -54.74    -35.84   18.90  Al2(SO4)3
  Al2(SO4)3:6H2O  -37.40    -35.84    1.56  Al2(SO4)3:6H2O
  Alum-K          -18.86    -23.83   -4.97  KAl(SO4)2:12H2O
  Alunite          -6.15     -6.62   -0.47  KAl3(OH)6(SO4)2
  Anhydrite        -2.23     -6.58   -4.35  CaSO4
  Antarcticite    -12.73     -8.64    4.09  CaCl2:6H2O
  Aphthitalite    -18.75    -22.64   -3.89  NaK3(SO4)2
  Aragonite        -0.45      1.52    1.97  CaCO3
  Arcanite         -9.97    -11.82   -1.84  K2SO4
  Artinite         -8.89     10.74   19.63  Mg2CO3(OH)2:3H2O
  Bassanite        -2.87     -6.58   -3.71  CaSO4:0.5H2O
  Berlinite        -4.06    -11.33   -7.27  AlPO4
  Birnessite      -71.80   -157.35  -85.55  Mn8O14:5H2O
  Bischofite      -13.98     -9.59    4.39  MgCl2:6H2O
  Bixbyite        -11.69    -12.65   -0.96  Mn2O3
  Bloedite        -14.87    -17.34   -2.48  Na2Mg(SO4)2:4H2O
  Boehmite          1.06      8.61    7.55  AlO2H
  Brucite          -6.12     10.16   16.28  Mg(OH)2
  Brushite        -15.37     -8.82    6.55  CaHPO4:2H2O
  Burkeite        -30.85    -21.36    9.49  Na6CO3(SO4)2
  C               -31.74     32.40   64.15  C
  C(g)           -149.36     32.40  181.77  C
  Ca             -107.72     32.11  139.83  Ca
  Ca(g)          -132.96     32.11  165.07  Ca
  Ca2Al2O5:8H2O   -20.13     39.44   59.57  Ca2Al2O5:8H2O
  Ca2Cl2(OH)2:H2O -23.82      2.47   26.29  Ca2Cl2(OH)2:H2O
  Ca3Al2O6        -62.48     50.55  113.03  Ca3Al2O6
  Ca4Al2Fe2O10    -65.94     74.54  140.48  Ca4Al2Fe2O10
  Ca4Al2O7:13H2O  -45.59     61.66  107.25  Ca4Al2O7:13H2O
  Ca4Al2O7:19H2O  -42.02     61.66  103.68  Ca4Al2O7:19H2O
  Ca4Cl2(OH)6:13H2O -43.63     24.70   68.33  Ca4Cl2(OH)6:13H2O
  CaAl2O4         -18.58     28.33   46.91  CaAl2O4
  CaAl2O4:10H2O    -9.67     28.33   37.99  CaAl2O4:10H2O
  CaAl4O7         -23.05     45.54   68.59  CaAl4O7
  Calcite          -0.30      1.52    1.82  CaCO3
  Carnallite      -20.80    -16.53    4.27  KMgCl3:6H2O
  CaSO4:0.5H2O(beta)  -3.04     -6.58   -3.54  CaSO4:0.5H2O
  Chloromagnesite -31.40     -9.59   21.82  MgCl2
  Cl2(g)          -43.74    -40.75    2.99  Cl2
  CO2(g)           -1.76     -9.59   -7.83  CO2
  Corundum         -1.08     17.22   18.29  Al2O3
  Dawsonite        -1.39      2.95    4.34  NaAlCO3(OH)2
  Diaspore          1.46      8.61    7.15  AlHO2
  Dolomite         -0.38      2.09    2.47  CaMg(CO3)2
  Dolomite-dis     -1.92      2.09    4.01  CaMg(CO3)2
  Dolomite-ord     -0.37      2.09    2.46  CaMg(CO3)2
  Epsomite         -5.56     -7.52   -1.96  MgSO4:7H2O
  Ettringite      -31.64     30.82   62.46  Ca6Al2(SO4)3(OH)12:26H2O
  Fe              -29.56     29.45   59.02  Fe
  Fe(OH)2          -5.44      8.46   13.89  Fe(OH)2
  Fe(OH)3           0.80      6.44    5.64  Fe(OH)3
  Fe2(SO4)3       -43.23    -40.18    3.05  Fe2(SO4)3
  FeO              -5.07      8.46   13.52  FeO
  Ferrite-Ca        2.49     23.99   21.50  CaFe2O4
  Ferrite-Dicalcium -21.70     35.10   56.80  Ca2Fe2O5
  Ferrite-Mg        2.02     23.04   21.02  MgFe2O4
  FeSO4           -11.84     -9.23    2.61  FeSO4
  Gaylussite      -11.37     -0.20   11.16  CaNa2(CO3)2:5H2O
  Gibbsite          0.87      8.61    7.74  Al(OH)3
  Glauberite      -10.93    -16.40   -5.47  Na2Ca(SO4)2
  Goethite          5.91      6.44    0.53  FeOOH
  Gypsum           -2.04     -6.58   -4.53  CaSO4:2H2O
  H2(g)           -22.00    -25.10   -3.10  H2
  H2O(g)           -1.59     -0.00    1.59  H2O
  Halite           -7.50     -5.94    1.56  NaCl
  Hausmannite     -14.55     -4.40   10.14  Mn3O4
  HCl(g)          -16.18     -9.87    6.30  HCl
  Hematite         12.80     12.88    0.08  Fe2O3
  Hercynite        -3.13     25.67   28.80  FeAl2O4
  Hexahydrite      -5.80     -7.52   -1.73  MgSO4:6H2O
  Huntite          -6.98      3.24   10.22  CaMg3(CO3)4
  Hydromagnesite  -18.29     12.45   30.74  Mg5(CO3)4(OH)2:4H2O
  Hydrophilite    -20.38     -8.64   11.75  CaCl2
  Hydroxylapatite  -1.03     -4.25   -3.22  Ca5(OH)(PO4)3
  Ice              -0.14     -0.00    0.14  H2O
  Jarosite         -3.71    -13.12   -9.41  KFe3(SO4)2(OH)6
  Jarosite-Na      -6.68    -12.12   -5.45  NaFe3(SO4)2(OH)6
  K               -57.54     13.43   70.98  K
  K(g)            -68.15     13.43   81.58  K
  K2CO3:1.5H2O    -17.10     -3.72   13.38  K2CO3:1.5H2O
  K2O             -78.17      5.87   84.04  K2O
  K3H(SO4)2       -22.95    -26.57   -3.62  K3H(SO4)2
  K8H4(CO3)6:3H2O -61.78    -34.07   27.71  K8H4(CO3)6:3H2O
  Kainite         -14.15    -14.46   -0.31  KMgClSO4:3H2O
  KAl(SO4)2       -27.10    -23.83    3.27  KAl(SO4)2
  Kalicinite       -6.94     -6.66    0.28  KHCO3
  Katoite         -28.39     50.55   78.94  Ca3Al2H12O12
  Kieserite        -7.26     -7.52   -0.27  MgSO4:H2O
  KMgCl3          -37.77    -16.53   21.25  KMgCl3
  KMgCl3:2H2O     -30.49    -16.53   13.96  KMgCl3:2H2O
  KNaCO3:6H2O     -12.98     -2.72   10.26  KNaCO3:6H2O
  Lansfordite      -4.27      0.57    4.84  MgCO3:5H2O
  Lawrencite      -20.35    -11.29    9.05  FeCl2
  Leonite         -15.23    -19.34   -4.11  K2Mg(SO4)2:4H2O
  Lime            -21.46     11.11   32.57  CaO
  Magnesite        -1.70      0.57    2.27  MgCO3
  Magnetite        10.92     21.33   10.42  Fe3O4
  Manganite        -6.16     -6.33   -0.16  MnO(OH)
  Manganosite      -9.67      8.25   17.92  MnO
  Mayenite       -240.31    253.84  494.15  Ca12Al14O33
  Melanterite      -6.83     -9.23   -2.40  FeSO4:7H2O
  Mercallite      -13.31    -14.75   -1.44  KHSO4
  Mg              -91.36     31.16  122.52  Mg
  Mg(g)          -111.08     31.16  142.25  Mg
  Mg1.25SO4(OH)0.5:0.5H2O -10.18     -4.98    5.20  Mg1.25SO4(OH)0.5:0.5H2O
  Mg1.5SO4(OH)    -11.65     -2.44    9.21  Mg1.5SO4(OH)
  MgCl2:2H2O      -22.32     -9.59   12.73  MgCl2:2H2O
  MgCl2:4H2O      -16.89     -9.59    7.30  MgCl2:4H2O
  MgCl2:H2O       -25.66     -9.59   16.07  MgCl2:H2O
  MgOHCl          -15.60      0.29   15.89  MgOHCl
  MgSO4           -12.35     -7.52    4.83  MgSO4
  Mirabilite       -8.67     -9.82   -1.15  Na2SO4:10H2O
  Misenite        -89.25   -100.33  -11.08  K8H6(SO4)7
  Mn              -53.69     29.25   82.93  Mn
  Mn(OH)2(am)      -7.06      8.25   15.31  Mn(OH)2
  Mn(OH)3         -12.67     -6.33    6.34  Mn(OH)3
  Mn3(PO4)2       -15.94    -15.12    0.82  Mn3(PO4)2
  MnCl2:2H2O      -15.50    -11.50    4.00  MnCl2:2H2O
  MnCl2:4H2O      -14.25    -11.50    2.75  MnCl2:4H2O
  MnCl2:H2O       -17.04    -11.50    5.54  MnCl2:H2O
  MnHPO4            1.26    -11.69  -12.95  MnHPO4
  MnO2(gamma)     -12.85    -28.97  -16.13  MnO2
  MnSO4           -12.05     -9.44    2.61  MnSO4
  Molysite        -36.66    -23.18   13.47  FeCl3
  Monohydrocalcite  -1.16      1.52    2.68  CaCO3:H2O
  Na              -52.94     14.43   67.37  Na
  Na(g)           -66.43     14.43   80.86  Na
  Na2CO3          -12.89     -1.72   11.16  Na2CO3
  Na2CO3:7H2O     -11.66     -1.72    9.94  Na2CO3:7H2O
  Na2O            -59.55      7.87   67.42  Na2O
  Na3H(SO4)2      -22.68    -23.57   -0.89  Na3H(SO4)2
  Na4Ca(SO4)3:2H2O -20.32    -26.22   -5.89  Na4Ca(SO4)3:2H2O
  NaFeO2           -9.51     10.37   19.88  NaFeO2
  Nahcolite        -5.52     -5.66   -0.14  NaHCO3
  Natron          -11.31     -1.72    9.59  Na2CO3:10H2O
  Nesquehonite     -4.72      0.57    5.29  MgCO3:3H2O
  NH3(g)           -9.08     -7.28    1.80  NH3
  Niter            -7.19     -7.42   -0.22  KNO3
  NO(g)            -3.91     -3.17    0.74  NO
  NO2(g)           -8.20      0.15    8.35  NO2
  O2(g)           -39.10    -42.00   -2.89  O2
  Oxychloride-Mg  -15.38     10.45   25.83  Mg2Cl(OH)3:4H2O
  P               -99.49     32.56  132.05  P
  Pentahydrite     -6.14     -7.52   -1.39  MgSO4:5H2O
  Periclase       -11.16     10.16   21.33  MgO
  Picromerite     -14.90    -19.34   -4.44  K2Mg(SO4)2:6H2O
  Pirssonite      -11.53     -0.20   11.32  Na2Ca(CO3)2:2H2O
  Polyhalite      -18.18    -32.49  -14.31  K2MgCa2(SO4)4:2H2O
  Portlandite     -11.44     11.11   22.55  Ca(OH)2
  Pyrolusite      -11.31    -28.97  -17.66  MnO2
  Rhodochrosite    -1.12     -1.34   -0.22  MnCO3
  Scacchite       -20.24    -11.50    8.74  MnCl2
  Siderite         -0.92     -1.13   -0.22  FeCO3
  Spinel          -10.23     27.38   37.61  Al2MgO4
  Starkeyite       -6.52     -7.52   -1.00  MgSO4:4H2O
  Strengite        -2.10    -13.50  -11.39  FePO4:2H2O
  Sylvite          -7.77     -6.94    0.83  KCl
  Syngenite       -10.79    -18.39   -7.60  K2Ca(SO4)2:H2O
  Tachyhydrite    -44.95    -27.81   17.14  Mg2CaCl6:12H2O
  Thenardite       -9.46     -9.82   -0.36  Na2SO4
  Thermonatrite   -12.66     -1.72   10.94  Na2CO3:H2O
  Todorokite      -58.33   -104.15  -45.82  Mn7O12:3H2O
  Trona-K         -20.97     -9.38   11.59  K2NaH(CO3)2:2H2O
  Vivianite        -9.78    -14.50   -4.72  Fe3(PO4)2:8H2O
  Whitlockite      -2.22     -6.54   -4.32  Ca3(PO4)2
  Wustite          -4.61      7.79   12.40  Fe.947O

**For a gas, SI = log10(fugacity). Fugacity = pressure * phi / 1 atm.
  For ideal gases, phi = 1.

------------------
End of simulation.
------------------

------------------------------------
Reading input data for simulation 2.
------------------------------------

-------------------------------
End of Run after 1.009 Seconds.
-------------------------------

